MODEL 1
REMARK VINA RESULT:    -6.709      0.000      0.000
REMARK INTER + INTRA:         -10.711
REMARK INTER:                  -9.455
REMARK INTRA:                  -1.256
REMARK UNBOUND:                -1.256
REMARK  Name = gant61.pdb
REMARK  10 active torsions:
REMARK  status: ('A' for Active; 'I' for Inactive)
REMARK    1  A    between atoms: C1_1  and  O1_2
REMARK    2  A    between atoms: O1_2  and  C2_3
REMARK    3  A    between atoms: C5_6  and  C9_11
REMARK    4  A    between atoms: C7_8  and  O2_9
REMARK    5  A    between atoms: O2_9  and  C8_10
REMARK    6  A    between atoms: N1_13  and  C10_14
REMARK    7  A    between atoms: C10_14  and  C11_15
REMARK    8  A    between atoms: C10_14  and  C20_29
REMARK    9  A    between atoms: N2_17  and  C12_18
REMARK   10  A    between atoms: N4_26  and  C19_27
REMARK                            x       y       z     vdW  Elec       q    Type
REMARK                         _______ _______ _______ _____ _____    ______ ____
ROOT
ATOM      1  C10 UNL     1     -30.613  -9.271  -1.369  0.00  0.00    +0.000 C 
ENDROOT
BRANCH   1   2
ATOM      2  C20 UNL     1     -31.197 -10.592  -1.839  0.00  0.00    +0.000 A 
ATOM      3  C21 UNL     1     -30.902 -11.804  -1.191  0.00  0.00    +0.000 A 
ATOM      4  C22 UNL     1     -31.453 -13.003  -1.644  0.00  0.00    +0.000 A 
ATOM      5  C23 UNL     1     -32.291 -13.011  -2.759  0.00  0.00    +0.000 A 
ATOM      6  C24 UNL     1     -32.572 -11.821  -3.427  0.00  0.00    +0.000 A 
ATOM      7  C25 UNL     1     -32.025 -10.620  -2.974  0.00  0.00    +0.000 A 
ENDBRANCH   1   2
BRANCH   1  10
ATOM      8  C9  UNL     1     -28.334  -9.355  -2.317  0.00  0.00    +0.000 C 
ATOM      9  O3  UNL     1     -28.739  -9.246  -3.470  0.00  0.00    +0.000 OA
ATOM     10  N1  UNL     1     -29.170  -9.385  -1.226  0.00  0.00    +0.000 N 
ATOM     11  H10 UNL     1     -28.807  -9.230  -0.292  0.00  0.00    +0.000 HD
BRANCH   8  15
ATOM     12  C2  UNL     1     -24.132  -9.613  -1.450  0.00  0.00    +0.000 A 
ATOM     13  C3  UNL     1     -24.606  -8.604  -2.296  0.00  0.00    +0.000 A 
ATOM     14  C4  UNL     1     -25.970  -8.503  -2.587  0.00  0.00    +0.000 A 
ATOM     15  C5  UNL     1     -26.872  -9.421  -2.041  0.00  0.00    +0.000 A 
ATOM     16  C6  UNL     1     -26.406 -10.426  -1.182  0.00  0.00    +0.000 A 
ATOM     17  C7  UNL     1     -25.043 -10.529  -0.883  0.00  0.00    +0.000 A 
BRANCH  12  19
ATOM     18  C1  UNL     1     -21.835  -9.480  -2.098  0.00  0.00    +0.000 C 
ATOM     19  O1  UNL     1     -22.814  -9.789  -1.115  0.00  0.00    +0.000 OA
ENDBRANCH  12  19
BRANCH  17  20
ATOM     20  O2  UNL     1     -24.502 -11.485  -0.059  0.00  0.00    +0.000 OA
ATOM     21  C8  UNL     1     -25.010 -11.575   1.264  0.00  0.00    +0.000 C 
ENDBRANCH  17  20
ENDBRANCH   8  15
ENDBRANCH   1  10
BRANCH   1  22
ATOM     22  C11 UNL     1     -31.225  -8.787  -0.026  0.00  0.00    +0.000 C 
ATOM     23  O4  UNL     1     -32.369  -8.332   0.019  0.00  0.00    +0.000 OA
ATOM     24  N2  UNL     1     -30.352  -8.916   1.045  0.00  0.00    +0.000 N 
ATOM     25  H12 UNL     1     -29.403  -9.195   0.818  0.00  0.00    +0.000 HD
BRANCH  24  26
ATOM     26  C12 UNL     1     -30.584  -8.584   2.396  0.00  0.00    +0.000 A 
ATOM     27  C13 UNL     1     -30.982  -9.508   3.367  0.00  0.00    +0.000 A 
ATOM     28  C14 UNL     1     -31.211  -9.128   4.700  0.00  0.00    +0.000 A 
ATOM     29  C15 UNL     1     -31.018  -7.781   5.024  0.00  0.00    +0.000 A 
ATOM     30  C16 UNL     1     -30.612  -6.841   4.082  0.00  0.00    +0.000 A 
ATOM     31  C17 UNL     1     -30.387  -7.242   2.755  0.00  0.00    +0.000 A 
ATOM     32  N3  UNL     1     -30.496  -5.595   4.642  0.00  0.00    +0.000 NA
ATOM     33  C18 UNL     1     -30.819  -5.747   5.901  0.00  0.00    +0.000 A 
ATOM     34  N4  UNL     1     -31.154  -7.051   6.182  0.00  0.00    +0.000 N 
ATOM     35  C19 UNL     1     -31.610  -7.543   7.457  0.00  0.00    +0.000 C 
ATOM     36  N5  UNL     1     -30.836  -4.774   6.827  0.00  0.00    +0.000 N 
ATOM     37  H19 UNL     1     -30.535  -4.991   7.772  0.00  0.00    +0.000 HD
ATOM     38  H20 UNL     1     -30.409  -3.910   6.500  0.00  0.00    +0.000 HD
ENDBRANCH  24  26
ENDBRANCH   1  22
TORSDOF 7
ENDMDL
MODEL 2
REMARK VINA RESULT:    -6.671      2.807      7.688
REMARK INTER + INTRA:         -10.657
REMARK INTER:                  -9.341
REMARK INTRA:                  -1.316
REMARK UNBOUND:                -1.256
REMARK  Name = gant61.pdb
REMARK  10 active torsions:
REMARK  status: ('A' for Active; 'I' for Inactive)
REMARK    1  A    between atoms: C1_1  and  O1_2
REMARK    2  A    between atoms: O1_2  and  C2_3
REMARK    3  A    between atoms: C5_6  and  C9_11
REMARK    4  A    between atoms: C7_8  and  O2_9
REMARK    5  A    between atoms: O2_9  and  C8_10
REMARK    6  A    between atoms: N1_13  and  C10_14
REMARK    7  A    between atoms: C10_14  and  C11_15
REMARK    8  A    between atoms: C10_14  and  C20_29
REMARK    9  A    between atoms: N2_17  and  C12_18
REMARK   10  A    between atoms: N4_26  and  C19_27
REMARK                            x       y       z     vdW  Elec       q    Type
REMARK                         _______ _______ _______ _____ _____    ______ ____
ROOT
ATOM      1  C10 UNL     1     -31.172  -9.144   1.738  0.00  0.00    +0.000 C 
ENDROOT
BRANCH   1   2
ATOM      2  C20 UNL     1     -31.405  -7.839   2.480  0.00  0.00    +0.000 A 
ATOM      3  C21 UNL     1     -30.400  -6.863   2.594  0.00  0.00    +0.000 A 
ATOM      4  C22 UNL     1     -30.642  -5.673   3.280  0.00  0.00    +0.000 A 
ATOM      5  C23 UNL     1     -31.884  -5.447   3.874  0.00  0.00    +0.000 A 
ATOM      6  C24 UNL     1     -32.882  -6.416   3.789  0.00  0.00    +0.000 A 
ATOM      7  C25 UNL     1     -32.643  -7.607   3.102  0.00  0.00    +0.000 A 
ENDBRANCH   1   2
BRANCH   1  10
ATOM      8  C9  UNL     1     -29.657 -10.618   3.017  0.00  0.00    +0.000 C 
ATOM      9  O3  UNL     1     -30.571 -11.082   3.691  0.00  0.00    +0.000 OA
ATOM     10  N1  UNL     1     -29.848  -9.664   2.047  0.00  0.00    +0.000 N 
ATOM     11  H10 UNL     1     -29.133  -9.482   1.352  0.00  0.00    +0.000 HD
BRANCH   8  15
ATOM     12  C2  UNL     1     -25.632 -12.061   3.450  0.00  0.00    +0.000 A 
ATOM     13  C3  UNL     1     -26.443 -11.917   4.581  0.00  0.00    +0.000 A 
ATOM     14  C4  UNL     1     -27.755 -11.450   4.459  0.00  0.00    +0.000 A 
ATOM     15  C5  UNL     1     -28.265 -11.115   3.201  0.00  0.00    +0.000 A 
ATOM     16  C6  UNL     1     -27.463 -11.272   2.062  0.00  0.00    +0.000 A 
ATOM     17  C7  UNL     1     -26.150 -11.742   2.177  0.00  0.00    +0.000 A 
BRANCH  12  19
ATOM     18  C1  UNL     1     -23.368 -11.682   4.114  0.00  0.00    +0.000 C 
ATOM     19  O1  UNL     1     -24.335 -12.506   3.477  0.00  0.00    +0.000 OA
ENDBRANCH  12  19
BRANCH  17  20
ATOM     20  O2  UNL     1     -25.296 -11.917   1.117  0.00  0.00    +0.000 OA
ATOM     21  C8  UNL     1     -25.107 -10.818   0.238  0.00  0.00    +0.000 C 
ENDBRANCH  17  20
ENDBRANCH   8  15
ENDBRANCH   1  10
BRANCH   1  22
ATOM     22  C11 UNL     1     -31.321  -8.997   0.200  0.00  0.00    +0.000 C 
ATOM     23  O4  UNL     1     -32.094  -8.169  -0.284  0.00  0.00    +0.000 OA
ATOM     24  N2  UNL     1     -30.523  -9.885  -0.508  0.00  0.00    +0.000 N 
ATOM     25  H12 UNL     1     -30.036 -10.586   0.040  0.00  0.00    +0.000 HD
BRANCH  24  26
ATOM     26  C12 UNL     1     -30.407 -10.017  -1.908  0.00  0.00    +0.000 A 
ATOM     27  C13 UNL     1     -31.459 -10.409  -2.742  0.00  0.00    +0.000 A 
ATOM     28  C14 UNL     1     -31.294 -10.535  -4.131  0.00  0.00    +0.000 A 
ATOM     29  C15 UNL     1     -30.029 -10.246  -4.655  0.00  0.00    +0.000 A 
ATOM     30  C16 UNL     1     -28.967  -9.844  -3.851  0.00  0.00    +0.000 A 
ATOM     31  C17 UNL     1     -29.153  -9.722  -2.465  0.00  0.00    +0.000 A 
ATOM     32  N3  UNL     1     -27.836  -9.623  -4.596  0.00  0.00    +0.000 NA
ATOM     33  C18 UNL     1     -28.179  -9.878  -5.832  0.00  0.00    +0.000 A 
ATOM     34  N4  UNL     1     -29.494 -10.270  -5.922  0.00  0.00    +0.000 N 
ATOM     35  C19 UNL     1     -30.167 -10.677  -7.129  0.00  0.00    +0.000 C 
ATOM     36  N5  UNL     1     -27.371  -9.784  -6.903  0.00  0.00    +0.000 N 
ATOM     37  H19 UNL     1     -27.755  -9.441  -7.778  0.00  0.00    +0.000 HD
ATOM     38  H20 UNL     1     -26.487  -9.328  -6.691  0.00  0.00    +0.000 HD
ENDBRANCH  24  26
ENDBRANCH   1  22
TORSDOF 7
ENDMDL
MODEL 3
REMARK VINA RESULT:    -6.641      3.427      7.537
REMARK INTER + INTRA:         -10.614
REMARK INTER:                  -9.479
REMARK INTRA:                  -1.135
REMARK UNBOUND:                -1.256
REMARK  Name = gant61.pdb
REMARK  10 active torsions:
REMARK  status: ('A' for Active; 'I' for Inactive)
REMARK    1  A    between atoms: C1_1  and  O1_2
REMARK    2  A    between atoms: O1_2  and  C2_3
REMARK    3  A    between atoms: C5_6  and  C9_11
REMARK    4  A    between atoms: C7_8  and  O2_9
REMARK    5  A    between atoms: O2_9  and  C8_10
REMARK    6  A    between atoms: N1_13  and  C10_14
REMARK    7  A    between atoms: C10_14  and  C11_15
REMARK    8  A    between atoms: C10_14  and  C20_29
REMARK    9  A    between atoms: N2_17  and  C12_18
REMARK   10  A    between atoms: N4_26  and  C19_27
REMARK                            x       y       z     vdW  Elec       q    Type
REMARK                         _______ _______ _______ _____ _____    ______ ____
ROOT
ATOM      1  C10 UNL     1     -30.395 -11.432  -2.603  0.00  0.00    +0.000 C 
ENDROOT
BRANCH   1   2
ATOM      2  C20 UNL     1     -29.908 -11.203  -4.024  0.00  0.00    +0.000 A 
ATOM      3  C21 UNL     1     -30.723 -10.599  -4.997  0.00  0.00    +0.000 A 
ATOM      4  C22 UNL     1     -30.249 -10.401  -6.294  0.00  0.00    +0.000 A 
ATOM      5  C23 UNL     1     -28.964 -10.816  -6.641  0.00  0.00    +0.000 A 
ATOM      6  C24 UNL     1     -28.154 -11.439  -5.694  0.00  0.00    +0.000 A 
ATOM      7  C25 UNL     1     -28.625 -11.636  -4.395  0.00  0.00    +0.000 A 
ENDBRANCH   1   2
BRANCH   1  10
ATOM      8  C9  UNL     1     -32.172 -13.141  -2.752  0.00  0.00    +0.000 C 
ATOM      9  O3  UNL     1     -31.369 -14.058  -2.890  0.00  0.00    +0.000 OA
ATOM     10  N1  UNL     1     -31.795 -11.827  -2.612  0.00  0.00    +0.000 N 
ATOM     11  H10 UNL     1     -32.449 -11.136  -2.261  0.00  0.00    +0.000 HD
BRANCH   8  15
ATOM     12  C2  UNL     1     -36.402 -13.891  -2.620  0.00  0.00    +0.000 A 
ATOM     13  C3  UNL     1     -35.539 -14.633  -1.805  0.00  0.00    +0.000 A 
ATOM     14  C4  UNL     1     -34.161 -14.402  -1.834  0.00  0.00    +0.000 A 
ATOM     15  C5  UNL     1     -33.632 -13.429  -2.687  0.00  0.00    +0.000 A 
ATOM     16  C6  UNL     1     -34.491 -12.672  -3.495  0.00  0.00    +0.000 A 
ATOM     17  C7  UNL     1     -35.872 -12.896  -3.468  0.00  0.00    +0.000 A 
BRANCH  12  19
ATOM     18  C1  UNL     1     -38.264 -15.347  -2.976  0.00  0.00    +0.000 C 
ATOM     19  O1  UNL     1     -37.763 -14.055  -2.660  0.00  0.00    +0.000 OA
ENDBRANCH  12  19
BRANCH  17  20
ATOM     20  O2  UNL     1     -36.782 -12.207  -4.231  0.00  0.00    +0.000 OA
ATOM     21  C8  UNL     1     -37.088 -12.725  -5.517  0.00  0.00    +0.000 C 
ENDBRANCH  17  20
ENDBRANCH   8  15
ENDBRANCH   1  10
BRANCH   1  22
ATOM     22  C11 UNL     1     -30.220 -10.182  -1.699  0.00  0.00    +0.000 C 
ATOM     23  O4  UNL     1     -29.370  -9.329  -1.957  0.00  0.00    +0.000 OA
ATOM     24  N2  UNL     1     -31.090 -10.169  -0.617  0.00  0.00    +0.000 N 
ATOM     25  H12 UNL     1     -31.645 -11.008  -0.479  0.00  0.00    +0.000 HD
BRANCH  24  26
ATOM     26  C12 UNL     1     -31.206  -9.188   0.389  0.00  0.00    +0.000 A 
ATOM     27  C13 UNL     1     -32.129  -8.139   0.349  0.00  0.00    +0.000 A 
ATOM     28  C14 UNL     1     -32.202  -7.178   1.372  0.00  0.00    +0.000 A 
ATOM     29  C15 UNL     1     -31.313  -7.314   2.443  0.00  0.00    +0.000 A 
ATOM     30  C16 UNL     1     -30.390  -8.353   2.515  0.00  0.00    +0.000 A 
ATOM     31  C17 UNL     1     -30.335  -9.305   1.484  0.00  0.00    +0.000 A 
ATOM     32  N3  UNL     1     -29.634  -8.268   3.656  0.00  0.00    +0.000 NA
ATOM     33  C18 UNL     1     -30.069  -7.206   4.283  0.00  0.00    +0.000 A 
ATOM     34  N4  UNL     1     -31.079  -6.586   3.586  0.00  0.00    +0.000 N 
ATOM     35  C19 UNL     1     -31.736  -5.362   3.972  0.00  0.00    +0.000 C 
ATOM     36  N5  UNL     1     -29.607  -6.748   5.459  0.00  0.00    +0.000 N 
ATOM     37  H19 UNL     1     -30.264  -6.350   6.123  0.00  0.00    +0.000 HD
ATOM     38  H20 UNL     1     -28.980  -7.404   5.920  0.00  0.00    +0.000 HD
ENDBRANCH  24  26
ENDBRANCH   1  22
TORSDOF 7
ENDMDL
MODEL 4
REMARK VINA RESULT:    -6.633      4.380     10.299
REMARK INTER + INTRA:         -10.604
REMARK INTER:                  -9.422
REMARK INTRA:                  -1.182
REMARK UNBOUND:                -1.256
REMARK  Name = gant61.pdb
REMARK  10 active torsions:
REMARK  status: ('A' for Active; 'I' for Inactive)
REMARK    1  A    between atoms: C1_1  and  O1_2
REMARK    2  A    between atoms: O1_2  and  C2_3
REMARK    3  A    between atoms: C5_6  and  C9_11
REMARK    4  A    between atoms: C7_8  and  O2_9
REMARK    5  A    between atoms: O2_9  and  C8_10
REMARK    6  A    between atoms: N1_13  and  C10_14
REMARK    7  A    between atoms: C10_14  and  C11_15
REMARK    8  A    between atoms: C10_14  and  C20_29
REMARK    9  A    between atoms: N2_17  and  C12_18
REMARK   10  A    between atoms: N4_26  and  C19_27
REMARK                            x       y       z     vdW  Elec       q    Type
REMARK                         _______ _______ _______ _____ _____    ______ ____
ROOT
ATOM      1  C10 UNL     1     -31.930  -4.790   5.527  0.00  0.00    +0.000 C 
ENDROOT
BRANCH   1   2
ATOM      2  C20 UNL     1     -31.648  -3.306   5.692  0.00  0.00    +0.000 A 
ATOM      3  C21 UNL     1     -32.457  -2.328   5.089  0.00  0.00    +0.000 A 
ATOM      4  C22 UNL     1     -32.175  -0.972   5.259  0.00  0.00    +0.000 A 
ATOM      5  C23 UNL     1     -31.075  -0.576   6.018  0.00  0.00    +0.000 A 
ATOM      6  C24 UNL     1     -30.249  -1.535   6.601  0.00  0.00    +0.000 A 
ATOM      7  C25 UNL     1     -30.531  -2.892   6.435  0.00  0.00    +0.000 A 
ENDBRANCH   1   2
BRANCH   1  10
ATOM      8  C9  UNL     1     -32.053  -6.206   7.548  0.00  0.00    +0.000 C 
ATOM      9  O3  UNL     1     -33.280  -6.205   7.553  0.00  0.00    +0.000 OA
ATOM     10  N1  UNL     1     -31.305  -5.540   6.607  0.00  0.00    +0.000 N 
ATOM     11  H10 UNL     1     -30.323  -5.754   6.481  0.00  0.00    +0.000 HD
BRANCH   8  15
ATOM     12  C2  UNL     1     -29.961  -8.522  10.502  0.00  0.00    +0.000 A 
ATOM     13  C3  UNL     1     -29.434  -7.297  10.080  0.00  0.00    +0.000 A 
ATOM     14  C4  UNL     1     -30.102  -6.529   9.122  0.00  0.00    +0.000 A 
ATOM     15  C5  UNL     1     -31.301  -6.988   8.569  0.00  0.00    +0.000 A 
ATOM     16  C6  UNL     1     -31.842  -8.207   8.998  0.00  0.00    +0.000 A 
ATOM     17  C7  UNL     1     -31.181  -8.978   9.960  0.00  0.00    +0.000 A 
BRANCH  12  19
ATOM     18  C1  UNL     1     -27.965  -9.243  11.601  0.00  0.00    +0.000 C 
ATOM     19  O1  UNL     1     -29.372  -9.341  11.432  0.00  0.00    +0.000 OA
ENDBRANCH  12  19
BRANCH  17  20
ATOM     20  O2  UNL     1     -31.636 -10.186  10.430  0.00  0.00    +0.000 OA
ATOM     21  C8  UNL     1     -32.801 -10.728   9.825  0.00  0.00    +0.000 C 
ENDBRANCH  17  20
ENDBRANCH   8  15
ENDBRANCH   1  10
BRANCH   1  22
ATOM     22  C11 UNL     1     -31.440  -5.348   4.164  0.00  0.00    +0.000 C 
ATOM     23  O4  UNL     1     -30.562  -4.768   3.523  0.00  0.00    +0.000 OA
ATOM     24  N2  UNL     1     -32.099  -6.509   3.785  0.00  0.00    +0.000 N 
ATOM     25  H12 UNL     1     -32.883  -6.790   4.366  0.00  0.00    +0.000 HD
BRANCH  24  26
ATOM     26  C12 UNL     1     -31.898  -7.277   2.618  0.00  0.00    +0.000 A 
ATOM     27  C13 UNL     1     -32.525  -7.014   1.397  0.00  0.00    +0.000 A 
ATOM     28  C14 UNL     1     -32.300  -7.812   0.263  0.00  0.00    +0.000 A 
ATOM     29  C15 UNL     1     -31.416  -8.887   0.402  0.00  0.00    +0.000 A 
ATOM     30  C16 UNL     1     -30.769  -9.167   1.601  0.00  0.00    +0.000 A 
ATOM     31  C17 UNL     1     -31.006  -8.355   2.722  0.00  0.00    +0.000 A 
ATOM     32  N3  UNL     1     -29.958 -10.267   1.484  0.00  0.00    +0.000 NA
ATOM     33  C18 UNL     1     -30.090 -10.666   0.245  0.00  0.00    +0.000 A 
ATOM     34  N4  UNL     1     -30.969  -9.870  -0.451  0.00  0.00    +0.000 N 
ATOM     35  C19 UNL     1     -31.379 -10.070  -1.818  0.00  0.00    +0.000 C 
ATOM     36  N5  UNL     1     -29.464 -11.718  -0.308  0.00  0.00    +0.000 N 
ATOM     37  H19 UNL     1     -29.150 -11.651  -1.272  0.00  0.00    +0.000 HD
ATOM     38  H20 UNL     1     -28.730 -12.098   0.286  0.00  0.00    +0.000 HD
ENDBRANCH  24  26
ENDBRANCH   1  22
TORSDOF 7
ENDMDL
MODEL 5
REMARK VINA RESULT:    -6.580      0.778      1.656
REMARK INTER + INTRA:         -10.529
REMARK INTER:                  -9.338
REMARK INTRA:                  -1.191
REMARK UNBOUND:                -1.256
REMARK  Name = gant61.pdb
REMARK  10 active torsions:
REMARK  status: ('A' for Active; 'I' for Inactive)
REMARK    1  A    between atoms: C1_1  and  O1_2
REMARK    2  A    between atoms: O1_2  and  C2_3
REMARK    3  A    between atoms: C5_6  and  C9_11
REMARK    4  A    between atoms: C7_8  and  O2_9
REMARK    5  A    between atoms: O2_9  and  C8_10
REMARK    6  A    between atoms: N1_13  and  C10_14
REMARK    7  A    between atoms: C10_14  and  C11_15
REMARK    8  A    between atoms: C10_14  and  C20_29
REMARK    9  A    between atoms: N2_17  and  C12_18
REMARK   10  A    between atoms: N4_26  and  C19_27
REMARK                            x       y       z     vdW  Elec       q    Type
REMARK                         _______ _______ _______ _____ _____    ______ ____
ROOT
ATOM      1  C10 UNL     1     -30.427  -9.329  -1.249  0.00  0.00    +0.000 C 
ENDROOT
BRANCH   1   2
ATOM      2  C20 UNL     1     -31.069 -10.594  -1.793  0.00  0.00    +0.000 A 
ATOM      3  C21 UNL     1     -30.836 -11.852  -1.210  0.00  0.00    +0.000 A 
ATOM      4  C22 UNL     1     -31.440 -12.997  -1.730  0.00  0.00    +0.000 A 
ATOM      5  C23 UNL     1     -32.271 -12.904  -2.846  0.00  0.00    +0.000 A 
ATOM      6  C24 UNL     1     -32.492 -11.668  -3.449  0.00  0.00    +0.000 A 
ATOM      7  C25 UNL     1     -31.891 -10.521  -2.930  0.00  0.00    +0.000 A 
ENDBRANCH   1   2
BRANCH   1  10
ATOM      8  C9  UNL     1     -28.115  -9.442  -2.110  0.00  0.00    +0.000 C 
ATOM      9  O3  UNL     1     -28.462  -9.196  -3.261  0.00  0.00    +0.000 OA
ATOM     10  N1  UNL     1     -28.999  -9.535  -1.062  0.00  0.00    +0.000 N 
ATOM     11  H10 UNL     1     -28.671  -9.494  -0.104  0.00  0.00    +0.000 HD
BRANCH   8  15
ATOM     12  C2  UNL     1     -23.927  -9.894  -1.256  0.00  0.00    +0.000 A 
ATOM     13  C3  UNL     1     -24.873 -10.536  -0.449  0.00  0.00    +0.000 A 
ATOM     14  C4  UNL     1     -26.239 -10.402  -0.713  0.00  0.00    +0.000 A 
ATOM     15  C5  UNL     1     -26.671  -9.614  -1.784  0.00  0.00    +0.000 A 
ATOM     16  C6  UNL     1     -25.729  -8.980  -2.605  0.00  0.00    +0.000 A 
ATOM     17  C7  UNL     1     -24.359  -9.114  -2.349  0.00  0.00    +0.000 A 
BRANCH  12  19
ATOM     18  C1  UNL     1     -22.075 -10.992  -0.217  0.00  0.00    +0.000 C 
ATOM     19  O1  UNL     1     -22.570  -9.967  -1.068  0.00  0.00    +0.000 OA
ENDBRANCH  12  19
BRANCH  17  20
ATOM     20  O2  UNL     1     -23.371  -8.523  -3.096  0.00  0.00    +0.000 OA
ATOM     21  C8  UNL     1     -23.300  -8.859  -4.474  0.00  0.00    +0.000 C 
ENDBRANCH  17  20
ENDBRANCH   8  15
ENDBRANCH   1  10
BRANCH   1  22
ATOM     22  C11 UNL     1     -31.058  -8.862   0.090  0.00  0.00    +0.000 C 
ATOM     23  O4  UNL     1     -32.219  -8.451   0.133  0.00  0.00    +0.000 OA
ATOM     24  N2  UNL     1     -30.182  -8.950   1.162  0.00  0.00    +0.000 N 
ATOM     25  H12 UNL     1     -29.222  -9.193   0.938  0.00  0.00    +0.000 HD
BRANCH  24  26
ATOM     26  C12 UNL     1     -30.428  -8.619   2.512  0.00  0.00    +0.000 A 
ATOM     27  C13 UNL     1     -30.770  -9.555   3.492  0.00  0.00    +0.000 A 
ATOM     28  C14 UNL     1     -31.014  -9.177   4.822  0.00  0.00    +0.000 A 
ATOM     29  C15 UNL     1     -30.897  -7.819   5.134  0.00  0.00    +0.000 A 
ATOM     30  C16 UNL     1     -30.548  -6.866   4.182  0.00  0.00    +0.000 A 
ATOM     31  C17 UNL     1     -30.305  -7.265   2.858  0.00  0.00    +0.000 A 
ATOM     32  N3  UNL     1     -30.501  -5.609   4.731  0.00  0.00    +0.000 NA
ATOM     33  C18 UNL     1     -30.810  -5.769   5.992  0.00  0.00    +0.000 A 
ATOM     34  N4  UNL     1     -31.070  -7.086   6.285  0.00  0.00    +0.000 N 
ATOM     35  C19 UNL     1     -31.493  -7.592   7.567  0.00  0.00    +0.000 C 
ATOM     36  N5  UNL     1     -30.879  -4.789   6.910  0.00  0.00    +0.000 N 
ATOM     37  H19 UNL     1     -30.563  -4.980   7.855  0.00  0.00    +0.000 HD
ATOM     38  H20 UNL     1     -30.503  -3.906   6.573  0.00  0.00    +0.000 HD
ENDBRANCH  24  26
ENDBRANCH   1  22
TORSDOF 7
ENDMDL
MODEL 6
REMARK VINA RESULT:    -6.568      4.741     10.006
REMARK INTER + INTRA:         -10.512
REMARK INTER:                  -9.383
REMARK INTRA:                  -1.129
REMARK UNBOUND:                -1.256
REMARK  Name = gant61.pdb
REMARK  10 active torsions:
REMARK  status: ('A' for Active; 'I' for Inactive)
REMARK    1  A    between atoms: C1_1  and  O1_2
REMARK    2  A    between atoms: O1_2  and  C2_3
REMARK    3  A    between atoms: C5_6  and  C9_11
REMARK    4  A    between atoms: C7_8  and  O2_9
REMARK    5  A    between atoms: O2_9  and  C8_10
REMARK    6  A    between atoms: N1_13  and  C10_14
REMARK    7  A    between atoms: C10_14  and  C11_15
REMARK    8  A    between atoms: C10_14  and  C20_29
REMARK    9  A    between atoms: N2_17  and  C12_18
REMARK   10  A    between atoms: N4_26  and  C19_27
REMARK                            x       y       z     vdW  Elec       q    Type
REMARK                         _______ _______ _______ _____ _____    ______ ____
ROOT
ATOM      1  C10 UNL     1     -31.196 -12.106  -3.173  0.00  0.00    +0.000 C 
ENDROOT
BRANCH   1   2
ATOM      2  C20 UNL     1     -32.447 -12.917  -3.466  0.00  0.00    +0.000 A 
ATOM      3  C21 UNL     1     -32.383 -14.281  -3.801  0.00  0.00    +0.000 A 
ATOM      4  C22 UNL     1     -33.549 -15.001  -4.064  0.00  0.00    +0.000 A 
ATOM      5  C23 UNL     1     -34.790 -14.368  -4.014  0.00  0.00    +0.000 A 
ATOM      6  C24 UNL     1     -34.866 -13.011  -3.708  0.00  0.00    +0.000 A 
ATOM      7  C25 UNL     1     -33.702 -12.288  -3.442  0.00  0.00    +0.000 A 
ENDBRANCH   1   2
BRANCH   1  10
ATOM      8  C9  UNL     1     -30.577 -10.742  -1.209  0.00  0.00    +0.000 C 
ATOM      9  O3  UNL     1     -29.479 -11.279  -1.101  0.00  0.00    +0.000 OA
ATOM     10  N1  UNL     1     -31.487 -11.082  -2.181  0.00  0.00    +0.000 N 
ATOM     11  H10 UNL     1     -32.265 -10.470  -2.398  0.00  0.00    +0.000 HD
BRANCH   8  15
ATOM     12  C2  UNL     1     -31.647  -7.602   1.524  0.00  0.00    +0.000 A 
ATOM     13  C3  UNL     1     -32.216  -7.634   0.246  0.00  0.00    +0.000 A 
ATOM     14  C4  UNL     1     -31.882  -8.649  -0.655  0.00  0.00    +0.000 A 
ATOM     15  C5  UNL     1     -30.964  -9.638  -0.287  0.00  0.00    +0.000 A 
ATOM     16  C6  UNL     1     -30.401  -9.620   0.996  0.00  0.00    +0.000 A 
ATOM     17  C7  UNL     1     -30.736  -8.609   1.904  0.00  0.00    +0.000 A 
BRANCH  12  19
ATOM     18  C1  UNL     1     -33.225  -6.601   3.014  0.00  0.00    +0.000 C 
ATOM     19  O1  UNL     1     -31.914  -6.643   2.468  0.00  0.00    +0.000 OA
ENDBRANCH  12  19
BRANCH  17  20
ATOM     20  O2  UNL     1     -30.226  -8.513   3.176  0.00  0.00    +0.000 OA
ATOM     21  C8  UNL     1     -29.068  -9.277   3.478  0.00  0.00    +0.000 C 
ENDBRANCH  17  20
ENDBRANCH   8  15
ENDBRANCH   1  10
BRANCH   1  22
ATOM     22  C11 UNL     1     -30.601 -11.439  -4.441  0.00  0.00    +0.000 C 
ATOM     23  O4  UNL     1     -30.861 -10.267  -4.721  0.00  0.00    +0.000 OA
ATOM     24  N2  UNL     1     -29.798 -12.297  -5.179  0.00  0.00    +0.000 N 
ATOM     25  H12 UNL     1     -29.784 -13.267  -4.879  0.00  0.00    +0.000 HD
BRANCH  24  26
ATOM     26  C12 UNL     1     -29.100 -12.017  -6.373  0.00  0.00    +0.000 A 
ATOM     27  C13 UNL     1     -27.838 -11.415  -6.413  0.00  0.00    +0.000 A 
ATOM     28  C14 UNL     1     -27.185 -11.148  -7.627  0.00  0.00    +0.000 A 
ATOM     29  C15 UNL     1     -27.846 -11.514  -8.805  0.00  0.00    +0.000 A 
ATOM     30  C16 UNL     1     -29.096 -12.124  -8.796  0.00  0.00    +0.000 A 
ATOM     31  C17 UNL     1     -29.731 -12.385  -7.571  0.00  0.00    +0.000 A 
ATOM     32  N3  UNL     1     -29.532 -12.383 -10.070  0.00  0.00    +0.000 NA
ATOM     33  C18 UNL     1     -28.582 -11.949 -10.858  0.00  0.00    +0.000 A 
ATOM     34  N4  UNL     1     -27.542 -11.404 -10.142  0.00  0.00    +0.000 N 
ATOM     35  C19 UNL     1     -26.368 -10.786 -10.706  0.00  0.00    +0.000 C 
ATOM     36  N5  UNL     1     -28.591 -12.008 -12.200  0.00  0.00    +0.000 N 
ATOM     37  H19 UNL     1     -27.722 -12.202 -12.688  0.00  0.00    +0.000 HD
ATOM     38  H20 UNL     1     -29.348 -12.583 -12.565  0.00  0.00    +0.000 HD
ENDBRANCH  24  26
ENDBRANCH   1  22
TORSDOF 7
ENDMDL
MODEL 7
REMARK VINA RESULT:    -6.469      2.210      4.092
REMARK INTER + INTRA:         -10.372
REMARK INTER:                  -9.263
REMARK INTRA:                  -1.109
REMARK UNBOUND:                -1.256
REMARK  Name = gant61.pdb
REMARK  10 active torsions:
REMARK  status: ('A' for Active; 'I' for Inactive)
REMARK    1  A    between atoms: C1_1  and  O1_2
REMARK    2  A    between atoms: O1_2  and  C2_3
REMARK    3  A    between atoms: C5_6  and  C9_11
REMARK    4  A    between atoms: C7_8  and  O2_9
REMARK    5  A    between atoms: O2_9  and  C8_10
REMARK    6  A    between atoms: N1_13  and  C10_14
REMARK    7  A    between atoms: C10_14  and  C11_15
REMARK    8  A    between atoms: C10_14  and  C20_29
REMARK    9  A    between atoms: N2_17  and  C12_18
REMARK   10  A    between atoms: N4_26  and  C19_27
REMARK                            x       y       z     vdW  Elec       q    Type
REMARK                         _______ _______ _______ _____ _____    ______ ____
ROOT
ATOM      1  C10 UNL     1     -30.118  -9.963   1.230  0.00  0.00    +0.000 C 
ENDROOT
BRANCH   1   2
ATOM      2  C20 UNL     1     -29.286 -10.706   2.262  0.00  0.00    +0.000 A 
ATOM      3  C21 UNL     1     -27.894 -10.847   2.128  0.00  0.00    +0.000 A 
ATOM      4  C22 UNL     1     -27.155 -11.533   3.092  0.00  0.00    +0.000 A 
ATOM      5  C23 UNL     1     -27.796 -12.101   4.193  0.00  0.00    +0.000 A 
ATOM      6  C24 UNL     1     -29.179 -11.991   4.325  0.00  0.00    +0.000 A 
ATOM      7  C25 UNL     1     -29.920 -11.303   3.364  0.00  0.00    +0.000 A 
ENDBRANCH   1   2
BRANCH   1  10
ATOM      8  C9  UNL     1     -29.525 -10.122  -1.163  0.00  0.00    +0.000 C 
ATOM      9  O3  UNL     1     -30.424 -10.923  -1.399  0.00  0.00    +0.000 OA
ATOM     10  N1  UNL     1     -29.291  -9.603   0.088  0.00  0.00    +0.000 N 
ATOM     11  H10 UNL     1     -28.716  -8.777   0.206  0.00  0.00    +0.000 HD
BRANCH   8  15
ATOM     12  C2  UNL     1     -26.934  -8.681  -4.274  0.00  0.00    +0.000 A 
ATOM     13  C3  UNL     1     -28.233  -9.095  -4.589  0.00  0.00    +0.000 A 
ATOM     14  C4  UNL     1     -29.090  -9.565  -3.590  0.00  0.00    +0.000 A 
ATOM     15  C5  UNL     1     -28.650  -9.633  -2.265  0.00  0.00    +0.000 A 
ATOM     16  C6  UNL     1     -27.355  -9.206  -1.940  0.00  0.00    +0.000 A 
ATOM     17  C7  UNL     1     -26.494  -8.731  -2.935  0.00  0.00    +0.000 A 
BRANCH  12  19
ATOM     18  C1  UNL     1     -25.558  -9.118  -6.179  0.00  0.00    +0.000 C 
ATOM     19  O1  UNL     1     -26.026  -8.212  -5.189  0.00  0.00    +0.000 OA
ENDBRANCH  12  19
BRANCH  17  20
ATOM     20  O2  UNL     1     -25.210  -8.301  -2.705  0.00  0.00    +0.000 OA
ATOM     21  C8  UNL     1     -24.486  -8.926  -1.656  0.00  0.00    +0.000 C 
ENDBRANCH  17  20
ENDBRANCH   8  15
ENDBRANCH   1  10
BRANCH   1  22
ATOM     22  C11 UNL     1     -30.787  -8.685   1.803  0.00  0.00    +0.000 C 
ATOM     23  O4  UNL     1     -31.864  -8.282   1.361  0.00  0.00    +0.000 OA
ATOM     24  N2  UNL     1     -30.040  -8.088   2.809  0.00  0.00    +0.000 N 
ATOM     25  H12 UNL     1     -29.116  -8.476   2.972  0.00  0.00    +0.000 HD
BRANCH  24  26
ATOM     26  C12 UNL     1     -30.354  -6.927   3.547  0.00  0.00    +0.000 A 
ATOM     27  C13 UNL     1     -30.589  -5.677   2.966  0.00  0.00    +0.000 A 
ATOM     28  C14 UNL     1     -30.890  -4.546   3.742  0.00  0.00    +0.000 A 
ATOM     29  C15 UNL     1     -30.950  -4.718   5.129  0.00  0.00    +0.000 A 
ATOM     30  C16 UNL     1     -30.731  -5.951   5.735  0.00  0.00    +0.000 A 
ATOM     31  C17 UNL     1     -30.434  -7.071   4.940  0.00  0.00    +0.000 A 
ATOM     32  N3  UNL     1     -30.844  -5.863   7.099  0.00  0.00    +0.000 NA
ATOM     33  C18 UNL     1     -31.127  -4.609   7.343  0.00  0.00    +0.000 A 
ATOM     34  N4  UNL     1     -31.193  -3.871   6.185  0.00  0.00    +0.000 N 
ATOM     35  C19 UNL     1     -31.428  -2.451   6.109  0.00  0.00    +0.000 C 
ATOM     36  N5  UNL     1     -31.330  -4.076   8.561  0.00  0.00    +0.000 N 
ATOM     37  H19 UNL     1     -32.042  -3.361   8.670  0.00  0.00    +0.000 HD
ATOM     38  H20 UNL     1     -31.408  -4.780   9.291  0.00  0.00    +0.000 HD
ENDBRANCH  24  26
ENDBRANCH   1  22
TORSDOF 7
ENDMDL
MODEL 8
REMARK VINA RESULT:    -6.365      4.707     10.802
REMARK INTER + INTRA:         -10.227
REMARK INTER:                  -8.914
REMARK INTRA:                  -1.313
REMARK UNBOUND:                -1.256
REMARK  Name = gant61.pdb
REMARK  10 active torsions:
REMARK  status: ('A' for Active; 'I' for Inactive)
REMARK    1  A    between atoms: C1_1  and  O1_2
REMARK    2  A    between atoms: O1_2  and  C2_3
REMARK    3  A    between atoms: C5_6  and  C9_11
REMARK    4  A    between atoms: C7_8  and  O2_9
REMARK    5  A    between atoms: O2_9  and  C8_10
REMARK    6  A    between atoms: N1_13  and  C10_14
REMARK    7  A    between atoms: C10_14  and  C11_15
REMARK    8  A    between atoms: C10_14  and  C20_29
REMARK    9  A    between atoms: N2_17  and  C12_18
REMARK   10  A    between atoms: N4_26  and  C19_27
REMARK                            x       y       z     vdW  Elec       q    Type
REMARK                         _______ _______ _______ _____ _____    ______ ____
ROOT
ATOM      1  C10 UNL     1     -32.303  -5.476   4.395  0.00  0.00    +0.000 C 
ENDROOT
BRANCH   1   2
ATOM      2  C20 UNL     1     -32.097  -6.244   5.689  0.00  0.00    +0.000 A 
ATOM      3  C21 UNL     1     -32.992  -7.244   6.107  0.00  0.00    +0.000 A 
ATOM      4  C22 UNL     1     -32.777  -7.934   7.300  0.00  0.00    +0.000 A 
ATOM      5  C23 UNL     1     -31.677  -7.625   8.099  0.00  0.00    +0.000 A 
ATOM      6  C24 UNL     1     -30.795  -6.618   7.711  0.00  0.00    +0.000 A 
ATOM      7  C25 UNL     1     -31.007  -5.928   6.516  0.00  0.00    +0.000 A 
ENDBRANCH   1   2
BRANCH   1  10
ATOM      8  C9  UNL     1     -34.496  -4.343   4.502  0.00  0.00    +0.000 C 
ATOM      9  O3  UNL     1     -34.057  -3.415   5.172  0.00  0.00    +0.000 OA
ATOM     10  N1  UNL     1     -33.722  -5.398   4.081  0.00  0.00    +0.000 N 
ATOM     11  H10 UNL     1     -34.042  -6.011   3.340  0.00  0.00    +0.000 HD
BRANCH   8  15
ATOM     12  C2  UNL     1     -38.602  -4.445   3.236  0.00  0.00    +0.000 A 
ATOM     13  C3  UNL     1     -37.969  -3.214   3.440  0.00  0.00    +0.000 A 
ATOM     14  C4  UNL     1     -36.633  -3.162   3.850  0.00  0.00    +0.000 A 
ATOM     15  C5  UNL     1     -35.921  -4.345   4.069  0.00  0.00    +0.000 A 
ATOM     16  C6  UNL     1     -36.545  -5.581   3.852  0.00  0.00    +0.000 A 
ATOM     17  C7  UNL     1     -37.880  -5.640   3.438  0.00  0.00    +0.000 A 
BRANCH  12  19
ATOM     18  C1  UNL     1     -40.417  -3.662   1.892  0.00  0.00    +0.000 C 
ATOM     19  O1  UNL     1     -39.908  -4.590   2.840  0.00  0.00    +0.000 OA
ENDBRANCH  12  19
BRANCH  17  20
ATOM     20  O2  UNL     1     -38.568  -6.806   3.211  0.00  0.00    +0.000 OA
ATOM     21  C8  UNL     1     -38.571  -7.779   4.245  0.00  0.00    +0.000 C 
ENDBRANCH  17  20
ENDBRANCH   8  15
ENDBRANCH   1  10
BRANCH   1  22
ATOM     22  C11 UNL     1     -31.546  -6.105   3.195  0.00  0.00    +0.000 C 
ATOM     23  O4  UNL     1     -30.458  -5.658   2.829  0.00  0.00    +0.000 OA
ATOM     24  N2  UNL     1     -32.231  -7.165   2.617  0.00  0.00    +0.000 N 
ATOM     25  H12 UNL     1     -33.173  -7.330   2.960  0.00  0.00    +0.000 HD
BRANCH  24  26
ATOM     26  C12 UNL     1     -31.831  -7.962   1.523  0.00  0.00    +0.000 A 
ATOM     27  C13 UNL     1     -32.273  -7.760   0.212  0.00  0.00    +0.000 A 
ATOM     28  C14 UNL     1     -31.854  -8.584  -0.845  0.00  0.00    +0.000 A 
ATOM     29  C15 UNL     1     -30.967  -9.621  -0.535  0.00  0.00    +0.000 A 
ATOM     30  C16 UNL     1     -30.502  -9.840   0.758  0.00  0.00    +0.000 A 
ATOM     31  C17 UNL     1     -30.931  -9.002   1.800  0.00  0.00    +0.000 A 
ATOM     32  N3  UNL     1     -29.648 -10.912   0.804  0.00  0.00    +0.000 NA
ATOM     33  C18 UNL     1     -29.578 -11.354  -0.425  0.00  0.00    +0.000 A 
ATOM     34  N4  UNL     1     -30.366 -10.613  -1.274  0.00  0.00    +0.000 N 
ATOM     35  C19 UNL     1     -30.557 -10.871  -2.679  0.00  0.00    +0.000 C 
ATOM     36  N5  UNL     1     -28.842 -12.399  -0.839  0.00  0.00    +0.000 N 
ATOM     37  H19 UNL     1     -28.388 -12.351  -1.746  0.00  0.00    +0.000 HD
ATOM     38  H20 UNL     1     -28.195 -12.734  -0.128  0.00  0.00    +0.000 HD
ENDBRANCH  24  26
ENDBRANCH   1  22
TORSDOF 7
ENDMDL
MODEL 9
REMARK VINA RESULT:    -6.355      5.520      9.115
REMARK INTER + INTRA:         -10.212
REMARK INTER:                  -9.122
REMARK INTRA:                  -1.091
REMARK UNBOUND:                -1.256
REMARK  Name = gant61.pdb
REMARK  10 active torsions:
REMARK  status: ('A' for Active; 'I' for Inactive)
REMARK    1  A    between atoms: C1_1  and  O1_2
REMARK    2  A    between atoms: O1_2  and  C2_3
REMARK    3  A    between atoms: C5_6  and  C9_11
REMARK    4  A    between atoms: C7_8  and  O2_9
REMARK    5  A    between atoms: O2_9  and  C8_10
REMARK    6  A    between atoms: N1_13  and  C10_14
REMARK    7  A    between atoms: C10_14  and  C11_15
REMARK    8  A    between atoms: C10_14  and  C20_29
REMARK    9  A    between atoms: N2_17  and  C12_18
REMARK   10  A    between atoms: N4_26  and  C19_27
REMARK                            x       y       z     vdW  Elec       q    Type
REMARK                         _______ _______ _______ _____ _____    ______ ____
ROOT
ATOM      1  C10 UNL     1     -32.872  -5.640   5.637  0.00  0.00    +0.000 C 
ENDROOT
BRANCH   1   2
ATOM      2  C20 UNL     1     -31.953  -4.511   6.074  0.00  0.00    +0.000 A 
ATOM      3  C21 UNL     1     -32.050  -3.931   7.351  0.00  0.00    +0.000 A 
ATOM      4  C22 UNL     1     -31.192  -2.897   7.726  0.00  0.00    +0.000 A 
ATOM      5  C23 UNL     1     -30.238  -2.418   6.828  0.00  0.00    +0.000 A 
ATOM      6  C24 UNL     1     -30.148  -2.967   5.551  0.00  0.00    +0.000 A 
ATOM      7  C25 UNL     1     -31.003  -4.003   5.174  0.00  0.00    +0.000 A 
ENDBRANCH   1   2
BRANCH   1  10
ATOM      8  C9  UNL     1     -32.738  -7.469   3.983  0.00  0.00    +0.000 C 
ATOM      9  O3  UNL     1     -33.406  -8.231   4.675  0.00  0.00    +0.000 OA
ATOM     10  N1  UNL     1     -32.418  -6.190   4.369  0.00  0.00    +0.000 N 
ATOM     11  H10 UNL     1     -32.085  -5.514   3.691  0.00  0.00    +0.000 HD
BRANCH   8  15
ATOM     12  C2  UNL     1     -31.302  -8.759   0.144  0.00  0.00    +0.000 A 
ATOM     13  C3  UNL     1     -32.336  -7.820   0.218  0.00  0.00    +0.000 A 
ATOM     14  C4  UNL     1     -32.815  -7.387   1.458  0.00  0.00    +0.000 A 
ATOM     15  C5  UNL     1     -32.267  -7.900   2.638  0.00  0.00    +0.000 A 
ATOM     16  C6  UNL     1     -31.220  -8.830   2.570  0.00  0.00    +0.000 A 
ATOM     17  C7  UNL     1     -30.734  -9.264   1.332  0.00  0.00    +0.000 A 
BRANCH  12  19
ATOM     18  C1  UNL     1     -31.539 -10.197  -1.751  0.00  0.00    +0.000 C 
ATOM     19  O1  UNL     1     -30.775  -9.242  -1.028  0.00  0.00    +0.000 OA
ENDBRANCH  12  19
BRANCH  17  20
ATOM     20  O2  UNL     1     -29.719 -10.176   1.176  0.00  0.00    +0.000 OA
ATOM     21  C8  UNL     1     -28.547  -9.992   1.955  0.00  0.00    +0.000 C 
ENDBRANCH  17  20
ENDBRANCH   8  15
ENDBRANCH   1  10
BRANCH   1  22
ATOM     22  C11 UNL     1     -34.352  -5.192   5.502  0.00  0.00    +0.000 C 
ATOM     23  O4  UNL     1     -35.201  -5.558   6.317  0.00  0.00    +0.000 OA
ATOM     24  N2  UNL     1     -34.575  -4.385   4.395  0.00  0.00    +0.000 N 
ATOM     25  H12 UNL     1     -33.795  -4.276   3.755  0.00  0.00    +0.000 HD
BRANCH  24  26
ATOM     26  C12 UNL     1     -35.791  -3.800   3.980  0.00  0.00    +0.000 A 
ATOM     27  C13 UNL     1     -35.999  -2.420   3.891  0.00  0.00    +0.000 A 
ATOM     28  C14 UNL     1     -37.231  -1.883   3.481  0.00  0.00    +0.000 A 
ATOM     29  C15 UNL     1     -38.247  -2.788   3.157  0.00  0.00    +0.000 A 
ATOM     30  C16 UNL     1     -38.066  -4.165   3.226  0.00  0.00    +0.000 A 
ATOM     31  C17 UNL     1     -36.826  -4.682   3.636  0.00  0.00    +0.000 A 
ATOM     32  N3  UNL     1     -39.206  -4.836   2.861  0.00  0.00    +0.000 NA
ATOM     33  C18 UNL     1     -40.079  -3.905   2.572  0.00  0.00    +0.000 A 
ATOM     34  N4  UNL     1     -39.552  -2.647   2.744  0.00  0.00    +0.000 N 
ATOM     35  C19 UNL     1     -40.266  -1.408   2.565  0.00  0.00    +0.000 C 
ATOM     36  N5  UNL     1     -41.340  -4.118   2.159  0.00  0.00    +0.000 N 
ATOM     37  H19 UNL     1     -41.737  -3.499   1.458  0.00  0.00    +0.000 HD
ATOM     38  H20 UNL     1     -41.521  -5.092   1.926  0.00  0.00    +0.000 HD
ENDBRANCH  24  26
ENDBRANCH   1  22
TORSDOF 7
ENDMDL
MODEL 10
REMARK VINA RESULT:    -6.333      3.854      9.056
REMARK INTER + INTRA:         -10.181
REMARK INTER:                  -9.326
REMARK INTRA:                  -0.855
REMARK UNBOUND:                -1.256
REMARK  Name = gant61.pdb
REMARK  10 active torsions:
REMARK  status: ('A' for Active; 'I' for Inactive)
REMARK    1  A    between atoms: C1_1  and  O1_2
REMARK    2  A    between atoms: O1_2  and  C2_3
REMARK    3  A    between atoms: C5_6  and  C9_11
REMARK    4  A    between atoms: C7_8  and  O2_9
REMARK    5  A    between atoms: O2_9  and  C8_10
REMARK    6  A    between atoms: N1_13  and  C10_14
REMARK    7  A    between atoms: C10_14  and  C11_15
REMARK    8  A    between atoms: C10_14  and  C20_29
REMARK    9  A    between atoms: N2_17  and  C12_18
REMARK   10  A    between atoms: N4_26  and  C19_27
REMARK                            x       y       z     vdW  Elec       q    Type
REMARK                         _______ _______ _______ _____ _____    ______ ____
ROOT
ATOM      1  C10 UNL     1     -30.810  -9.674  -1.903  0.00  0.00    +0.000 C 
ENDROOT
BRANCH   1   2
ATOM      2  C20 UNL     1     -31.105  -9.169  -0.501  0.00  0.00    +0.000 A 
ATOM      3  C21 UNL     1     -30.463  -9.705   0.629  0.00  0.00    +0.000 A 
ATOM      4  C22 UNL     1     -30.752  -9.220   1.905  0.00  0.00    +0.000 A 
ATOM      5  C23 UNL     1     -31.697  -8.208   2.072  0.00  0.00    +0.000 A 
ATOM      6  C24 UNL     1     -32.360  -7.685   0.964  0.00  0.00    +0.000 A 
ATOM      7  C25 UNL     1     -32.070  -8.165  -0.314  0.00  0.00    +0.000 A 
ENDBRANCH   1   2
BRANCH   1  10
ATOM      8  C9  UNL     1     -31.939 -11.216  -3.469  0.00  0.00    +0.000 C 
ATOM      9  O3  UNL     1     -31.609 -10.562  -4.453  0.00  0.00    +0.000 OA
ATOM     10  N1  UNL     1     -31.605 -10.860  -2.184  0.00  0.00    +0.000 N 
ATOM     11  H10 UNL     1     -31.675 -11.530  -1.427  0.00  0.00    +0.000 HD
BRANCH   8  15
ATOM     12  C2  UNL     1     -34.229 -14.825  -3.917  0.00  0.00    +0.000 A 
ATOM     13  C3  UNL     1     -32.834 -14.871  -4.018  0.00  0.00    +0.000 A 
ATOM     14  C4  UNL     1     -32.073 -13.707  -3.874  0.00  0.00    +0.000 A 
ATOM     15  C5  UNL     1     -32.704 -12.483  -3.634  0.00  0.00    +0.000 A 
ATOM     16  C6  UNL     1     -34.100 -12.432  -3.517  0.00  0.00    +0.000 A 
ATOM     17  C7  UNL     1     -34.867 -13.594  -3.656  0.00  0.00    +0.000 A 
BRANCH  12  19
ATOM     18  C1  UNL     1     -34.450 -17.201  -4.057  0.00  0.00    +0.000 C 
ATOM     19  O1  UNL     1     -35.053 -15.914  -4.050  0.00  0.00    +0.000 OA
ENDBRANCH  12  19
BRANCH  17  20
ATOM     20  O2  UNL     1     -36.236 -13.632  -3.564  0.00  0.00    +0.000 OA
ATOM     21  C8  UNL     1     -36.967 -12.609  -4.223  0.00  0.00    +0.000 C 
ENDBRANCH  17  20
ENDBRANCH   8  15
ENDBRANCH   1  10
BRANCH   1  22
ATOM     22  C11 UNL     1     -29.308  -9.998  -2.122  0.00  0.00    +0.000 C 
ATOM     23  O4  UNL     1     -28.838 -11.083  -1.773  0.00  0.00    +0.000 OA
ATOM     24  N2  UNL     1     -28.609  -8.955  -2.714  0.00  0.00    +0.000 N 
ATOM     25  H12 UNL     1     -29.116  -8.083  -2.827  0.00  0.00    +0.000 HD
BRANCH  24  26
ATOM     26  C12 UNL     1     -27.241  -8.916  -3.060  0.00  0.00    +0.000 A 
ATOM     27  C13 UNL     1     -26.774  -8.871  -4.376  0.00  0.00    +0.000 A 
ATOM     28  C14 UNL     1     -25.401  -8.842  -4.673  0.00  0.00    +0.000 A 
ATOM     29  C15 UNL     1     -24.512  -8.854  -3.593  0.00  0.00    +0.000 A 
ATOM     30  C16 UNL     1     -24.948  -8.887  -2.272  0.00  0.00    +0.000 A 
ATOM     31  C17 UNL     1     -26.325  -8.913  -1.997  0.00  0.00    +0.000 A 
ATOM     32  N3  UNL     1     -23.890  -8.893  -1.399  0.00  0.00    +0.000 NA
ATOM     33  C18 UNL     1     -22.820  -8.864  -2.150  0.00  0.00    +0.000 A 
ATOM     34  N4  UNL     1     -23.141  -8.850  -3.487  0.00  0.00    +0.000 N 
ATOM     35  C19 UNL     1     -22.197  -8.874  -4.576  0.00  0.00    +0.000 C 
ATOM     36  N5  UNL     1     -21.552  -8.853  -1.704  0.00  0.00    +0.000 N 
ATOM     37  H19 UNL     1     -20.863  -8.295  -2.199  0.00  0.00    +0.000 HD
ATOM     38  H20 UNL     1     -21.488  -8.702  -0.700  0.00  0.00    +0.000 HD
ENDBRANCH  24  26
ENDBRANCH   1  22
TORSDOF 7
ENDMDL
