MODEL 1
REMARK VINA RESULT:    -6.615      0.000      0.000
REMARK INTER + INTRA:         -10.512
REMARK INTER:                  -9.322
REMARK INTRA:                  -1.191
REMARK UNBOUND:                -1.191
REMARK  Name = gant61.pdb
REMARK  10 active torsions:
REMARK  status: ('A' for Active; 'I' for Inactive)
REMARK    1  A    between atoms: C1_1  and  O1_2
REMARK    2  A    between atoms: O1_2  and  C2_3
REMARK    3  A    between atoms: C5_6  and  C9_11
REMARK    4  A    between atoms: C7_8  and  O2_9
REMARK    5  A    between atoms: O2_9  and  C8_10
REMARK    6  A    between atoms: N1_13  and  C10_14
REMARK    7  A    between atoms: C10_14  and  C11_15
REMARK    8  A    between atoms: C10_14  and  C20_29
REMARK    9  A    between atoms: N2_17  and  C12_18
REMARK   10  A    between atoms: N4_26  and  C19_27
REMARK                            x       y       z     vdW  Elec       q    Type
REMARK                         _______ _______ _______ _____ _____    ______ ____
ROOT
ATOM      1  C10 UNL     1     -30.767 -11.549  -2.767  0.00  0.00    +0.000 C 
ENDROOT
BRANCH   1   2
ATOM      2  C20 UNL     1     -31.977 -12.469  -2.854  0.00  0.00    +0.000 A 
ATOM      3  C21 UNL     1     -33.147 -12.086  -3.532  0.00  0.00    +0.000 A 
ATOM      4  C22 UNL     1     -34.263 -12.923  -3.556  0.00  0.00    +0.000 A 
ATOM      5  C23 UNL     1     -34.233 -14.148  -2.894  0.00  0.00    +0.000 A 
ATOM      6  C24 UNL     1     -33.085 -14.538  -2.208  0.00  0.00    +0.000 A 
ATOM      7  C25 UNL     1     -31.966 -13.704  -2.182  0.00  0.00    +0.000 A 
ENDBRANCH   1   2
BRANCH   1  10
ATOM      8  C9  UNL     1     -30.505 -10.375  -0.588  0.00  0.00    +0.000 C 
ATOM      9  O3  UNL     1     -29.598 -11.118  -0.229  0.00  0.00    +0.000 OA
ATOM     10  N1  UNL     1     -31.077 -10.459  -1.834  0.00  0.00    +0.000 N 
ATOM     11  H10 UNL     1     -31.932  -9.950  -2.018  0.00  0.00    +0.000 HD
BRANCH   8  15
ATOM     12  C2  UNL     1     -32.100  -7.325   1.974  0.00  0.00    +0.000 A 
ATOM     13  C3  UNL     1     -32.470  -7.400   0.627  0.00  0.00    +0.000 A 
ATOM     14  C4  UNL     1     -31.945  -8.401  -0.192  0.00  0.00    +0.000 A 
ATOM     15  C5  UNL     1     -31.037  -9.329   0.325  0.00  0.00    +0.000 A 
ATOM     16  C6  UNL     1     -30.674  -9.275   1.677  0.00  0.00    +0.000 A 
ATOM     17  C7  UNL     1     -31.200  -8.274   2.504  0.00  0.00    +0.000 A 
BRANCH  12  19
ATOM     18  C1  UNL     1     -33.920  -6.457   3.259  0.00  0.00    +0.000 C 
ATOM     19  O1  UNL     1     -32.561  -6.377   2.853  0.00  0.00    +0.000 OA
ENDBRANCH  12  19
BRANCH  17  20
ATOM     20  O2  UNL     1     -30.901  -8.138   3.837  0.00  0.00    +0.000 OA
ATOM     21  C8  UNL     1     -29.535  -8.009   4.206  0.00  0.00    +0.000 C 
ENDBRANCH  17  20
ENDBRANCH   8  15
ENDBRANCH   1  10
BRANCH   1  22
ATOM     22  C11 UNL     1     -30.255 -11.018  -4.146  0.00  0.00    +0.000 C 
ATOM     23  O4  UNL     1     -30.409  -9.854  -4.509  0.00  0.00    +0.000 OA
ATOM     24  N2  UNL     1     -29.684 -12.021  -4.920  0.00  0.00    +0.000 N 
ATOM     25  H12 UNL     1     -29.678 -12.953  -4.499  0.00  0.00    +0.000 HD
BRANCH  24  26
ATOM     26  C12 UNL     1     -29.110 -11.920  -6.204  0.00  0.00    +0.000 A 
ATOM     27  C13 UNL     1     -27.763 -11.532  -6.258  0.00  0.00    +0.000 A 
ATOM     28  C14 UNL     1     -27.077 -11.388  -7.472  0.00  0.00    +0.000 A 
ATOM     29  C15 UNL     1     -27.800 -11.647  -8.639  0.00  0.00    +0.000 A 
ATOM     30  C16 UNL     1     -29.137 -12.031  -8.621  0.00  0.00    +0.000 A 
ATOM     31  C17 UNL     1     -29.806 -12.172  -7.391  0.00  0.00    +0.000 A 
ATOM     32  N3  UNL     1     -29.613 -12.215  -9.896  0.00  0.00    +0.000 NA
ATOM     33  C18 UNL     1     -28.608 -11.947 -10.689  0.00  0.00    +0.000 A 
ATOM     34  N4  UNL     1     -27.480 -11.618  -9.977  0.00  0.00    +0.000 N 
ATOM     35  C19 UNL     1     -26.185 -11.323 -10.538  0.00  0.00    +0.000 C 
ATOM     36  N5  UNL     1     -28.641 -11.978 -12.033  0.00  0.00    +0.000 N 
ATOM     37  H19 UNL     1     -29.584 -12.080 -12.402  0.00  0.00    +0.000 HD
ATOM     38  H20 UNL     1     -28.122 -11.275 -12.548  0.00  0.00    +0.000 HD
ENDBRANCH  24  26
ENDBRANCH   1  22
TORSDOF 7
ENDMDL
MODEL 2
REMARK VINA RESULT:    -6.611      4.220      7.632
REMARK INTER + INTRA:         -10.507
REMARK INTER:                  -9.479
REMARK INTRA:                  -1.028
REMARK UNBOUND:                -1.191
REMARK  Name = gant61.pdb
REMARK  10 active torsions:
REMARK  status: ('A' for Active; 'I' for Inactive)
REMARK    1  A    between atoms: C1_1  and  O1_2
REMARK    2  A    between atoms: O1_2  and  C2_3
REMARK    3  A    between atoms: C5_6  and  C9_11
REMARK    4  A    between atoms: C7_8  and  O2_9
REMARK    5  A    between atoms: O2_9  and  C8_10
REMARK    6  A    between atoms: N1_13  and  C10_14
REMARK    7  A    between atoms: C10_14  and  C11_15
REMARK    8  A    between atoms: C10_14  and  C20_29
REMARK    9  A    between atoms: N2_17  and  C12_18
REMARK   10  A    between atoms: N4_26  and  C19_27
REMARK                            x       y       z     vdW  Elec       q    Type
REMARK                         _______ _______ _______ _____ _____    ______ ____
ROOT
ATOM      1  C10 UNL     1     -30.624  -9.897  -1.963  0.00  0.00    +0.000 C 
ENDROOT
BRANCH   1   2
ATOM      2  C20 UNL     1     -30.983  -9.310  -0.605  0.00  0.00    +0.000 A 
ATOM      3  C21 UNL     1     -30.400  -9.788   0.581  0.00  0.00    +0.000 A 
ATOM      4  C22 UNL     1     -30.780  -9.272   1.821  0.00  0.00    +0.000 A 
ATOM      5  C23 UNL     1     -31.756  -8.281   1.895  0.00  0.00    +0.000 A 
ATOM      6  C24 UNL     1     -32.352  -7.804   0.730  0.00  0.00    +0.000 A 
ATOM      7  C25 UNL     1     -31.972  -8.317  -0.512  0.00  0.00    +0.000 A 
ENDBRANCH   1   2
BRANCH   1  10
ATOM      8  C9  UNL     1     -31.959 -11.401  -3.430  0.00  0.00    +0.000 C 
ATOM      9  O3  UNL     1     -31.633 -10.796  -4.446  0.00  0.00    +0.000 OA
ATOM     10  N1  UNL     1     -31.455 -11.085  -2.191  0.00  0.00    +0.000 N 
ATOM     11  H10 UNL     1     -31.884 -11.489  -1.368  0.00  0.00    +0.000 HD
BRANCH   8  15
ATOM     12  C2  UNL     1     -34.692 -14.704  -3.590  0.00  0.00    +0.000 A 
ATOM     13  C3  UNL     1     -33.317 -14.914  -3.438  0.00  0.00    +0.000 A 
ATOM     14  C4  UNL     1     -32.442 -13.828  -3.384  0.00  0.00    +0.000 A 
ATOM     15  C5  UNL     1     -32.931 -12.524  -3.492  0.00  0.00    +0.000 A 
ATOM     16  C6  UNL     1     -34.308 -12.302  -3.625  0.00  0.00    +0.000 A 
ATOM     17  C7  UNL     1     -35.191 -13.387  -3.677  0.00  0.00    +0.000 A 
BRANCH  12  19
ATOM     18  C1  UNL     1     -35.771 -16.552  -2.523  0.00  0.00    +0.000 C 
ATOM     19  O1  UNL     1     -35.626 -15.708  -3.656  0.00  0.00    +0.000 OA
ENDBRANCH  12  19
BRANCH  17  20
ATOM     20  O2  UNL     1     -36.553 -13.270  -3.810  0.00  0.00    +0.000 OA
ATOM     21  C8  UNL     1     -37.060 -12.681  -4.999  0.00  0.00    +0.000 C 
ENDBRANCH  17  20
ENDBRANCH   8  15
ENDBRANCH   1  10
BRANCH   1  22
ATOM     22  C11 UNL     1     -29.101 -10.197  -2.159  0.00  0.00    +0.000 C 
ATOM     23  O4  UNL     1     -28.592 -11.276  -1.864  0.00  0.00    +0.000 OA
ATOM     24  N2  UNL     1     -28.401  -9.092  -2.629  0.00  0.00    +0.000 N 
ATOM     25  H12 UNL     1     -28.958  -8.247  -2.776  0.00  0.00    +0.000 HD
BRANCH  24  26
ATOM     26  C12 UNL     1     -27.028  -8.986  -2.931  0.00  0.00    +0.000 A 
ATOM     27  C13 UNL     1     -26.689  -8.942  -4.291  0.00  0.00    +0.000 A 
ATOM     28  C14 UNL     1     -25.360  -8.845  -4.725  0.00  0.00    +0.000 A 
ATOM     29  C15 UNL     1     -24.376  -8.794  -3.736  0.00  0.00    +0.000 A 
ATOM     30  C16 UNL     1     -24.677  -8.836  -2.377  0.00  0.00    +0.000 A 
ATOM     31  C17 UNL     1     -26.019  -8.932  -1.964  0.00  0.00    +0.000 A 
ATOM     32  N3  UNL     1     -23.534  -8.779  -1.618  0.00  0.00    +0.000 NA
ATOM     33  C18 UNL     1     -22.547  -8.711  -2.472  0.00  0.00    +0.000 A 
ATOM     34  N4  UNL     1     -23.003  -8.695  -3.768  0.00  0.00    +0.000 N 
ATOM     35  C19 UNL     1     -22.186  -8.569  -4.949  0.00  0.00    +0.000 C 
ATOM     36  N5  UNL     1     -21.240  -8.663  -2.157  0.00  0.00    +0.000 N 
ATOM     37  H19 UNL     1     -21.066  -8.846  -1.171  0.00  0.00    +0.000 HD
ATOM     38  H20 UNL     1     -20.580  -9.163  -2.743  0.00  0.00    +0.000 HD
ENDBRANCH  24  26
ENDBRANCH   1  22
TORSDOF 7
ENDMDL
MODEL 3
REMARK VINA RESULT:    -6.556      4.753     11.306
REMARK INTER + INTRA:         -10.429
REMARK INTER:                  -9.324
REMARK INTRA:                  -1.105
REMARK UNBOUND:                -1.191
REMARK  Name = gant61.pdb
REMARK  10 active torsions:
REMARK  status: ('A' for Active; 'I' for Inactive)
REMARK    1  A    between atoms: C1_1  and  O1_2
REMARK    2  A    between atoms: O1_2  and  C2_3
REMARK    3  A    between atoms: C5_6  and  C9_11
REMARK    4  A    between atoms: C7_8  and  O2_9
REMARK    5  A    between atoms: O2_9  and  C8_10
REMARK    6  A    between atoms: N1_13  and  C10_14
REMARK    7  A    between atoms: C10_14  and  C11_15
REMARK    8  A    between atoms: C10_14  and  C20_29
REMARK    9  A    between atoms: N2_17  and  C12_18
REMARK   10  A    between atoms: N4_26  and  C19_27
REMARK                            x       y       z     vdW  Elec       q    Type
REMARK                         _______ _______ _______ _____ _____    ______ ____
ROOT
ATOM      1  C10 UNL     1     -30.529  -9.633   1.564  0.00  0.00    +0.000 C 
ENDROOT
BRANCH   1   2
ATOM      2  C20 UNL     1     -29.699 -10.507   2.495  0.00  0.00    +0.000 A 
ATOM      3  C21 UNL     1     -30.291 -11.252   3.528  0.00  0.00    +0.000 A 
ATOM      4  C22 UNL     1     -29.508 -12.006   4.403  0.00  0.00    +0.000 A 
ATOM      5  C23 UNL     1     -28.121 -12.016   4.266  0.00  0.00    +0.000 A 
ATOM      6  C24 UNL     1     -27.517 -11.274   3.254  0.00  0.00    +0.000 A 
ATOM      7  C25 UNL     1     -28.299 -10.520   2.377  0.00  0.00    +0.000 A 
ENDBRANCH   1   2
BRANCH   1  10
ATOM      8  C9  UNL     1     -29.934  -9.894  -0.839  0.00  0.00    +0.000 C 
ATOM      9  O3  UNL     1     -30.899 -10.617  -1.060  0.00  0.00    +0.000 OA
ATOM     10  N1  UNL     1     -29.719  -9.308   0.385  0.00  0.00    +0.000 N 
ATOM     11  H10 UNL     1     -28.825  -8.870   0.570  0.00  0.00    +0.000 HD
BRANCH   8  15
ATOM     12  C2  UNL     1     -26.977  -9.075  -3.838  0.00  0.00    +0.000 A 
ATOM     13  C3  UNL     1     -26.671  -8.967  -2.476  0.00  0.00    +0.000 A 
ATOM     14  C4  UNL     1     -27.644  -9.242  -1.513  0.00  0.00    +0.000 A 
ATOM     15  C5  UNL     1     -28.933  -9.615  -1.901  0.00  0.00    +0.000 A 
ATOM     16  C6  UNL     1     -29.244  -9.744  -3.261  0.00  0.00    +0.000 A 
ATOM     17  C7  UNL     1     -28.272  -9.473  -4.232  0.00  0.00    +0.000 A 
BRANCH  12  19
ATOM     18  C1  UNL     1     -24.708  -9.025  -4.589  0.00  0.00    +0.000 C 
ATOM     19  O1  UNL     1     -26.089  -8.823  -4.854  0.00  0.00    +0.000 OA
ENDBRANCH  12  19
BRANCH  17  20
ATOM     20  O2  UNL     1     -28.484  -9.567  -5.585  0.00  0.00    +0.000 OA
ATOM     21  C8  UNL     1     -29.689 -10.171  -6.033  0.00  0.00    +0.000 C 
ENDBRANCH  17  20
ENDBRANCH   8  15
ENDBRANCH   1  10
BRANCH   1  22
ATOM     22  C11 UNL     1     -31.132  -8.356   2.237  0.00  0.00    +0.000 C 
ATOM     23  O4  UNL     1     -32.202  -7.862   1.888  0.00  0.00    +0.000 OA
ATOM     24  N2  UNL     1     -30.291  -7.822   3.205  0.00  0.00    +0.000 N 
ATOM     25  H12 UNL     1     -29.407  -8.317   3.344  0.00  0.00    +0.000 HD
BRANCH  24  26
ATOM     26  C12 UNL     1     -30.498  -6.690   4.020  0.00  0.00    +0.000 A 
ATOM     27  C13 UNL     1     -30.545  -6.917   5.404  0.00  0.00    +0.000 A 
ATOM     28  C14 UNL     1     -30.752  -5.880   6.323  0.00  0.00    +0.000 A 
ATOM     29  C15 UNL     1     -30.912  -4.595   5.798  0.00  0.00    +0.000 A 
ATOM     30  C16 UNL     1     -30.873  -4.336   4.431  0.00  0.00    +0.000 A 
ATOM     31  C17 UNL     1     -30.662  -5.392   3.526  0.00  0.00    +0.000 A 
ATOM     32  N3  UNL     1     -31.066  -2.999   4.179  0.00  0.00    +0.000 NA
ATOM     33  C18 UNL     1     -31.229  -2.440   5.349  0.00  0.00    +0.000 A 
ATOM     34  N4  UNL     1     -31.124  -3.359   6.365  0.00  0.00    +0.000 N 
ATOM     35  C19 UNL     1     -31.196  -3.070   7.775  0.00  0.00    +0.000 C 
ATOM     36  N5  UNL     1     -31.472  -1.135   5.567  0.00  0.00    +0.000 N 
ATOM     37  H19 UNL     1     -31.680  -0.625   4.711  0.00  0.00    +0.000 HD
ATOM     38  H20 UNL     1     -32.113  -0.877   6.310  0.00  0.00    +0.000 HD
ENDBRANCH  24  26
ENDBRANCH   1  22
TORSDOF 7
ENDMDL
MODEL 4
REMARK VINA RESULT:    -6.519      4.894     11.162
REMARK INTER + INTRA:         -10.377
REMARK INTER:                  -9.227
REMARK INTRA:                  -1.151
REMARK UNBOUND:                -1.191
REMARK  Name = gant61.pdb
REMARK  10 active torsions:
REMARK  status: ('A' for Active; 'I' for Inactive)
REMARK    1  A    between atoms: C1_1  and  O1_2
REMARK    2  A    between atoms: O1_2  and  C2_3
REMARK    3  A    between atoms: C5_6  and  C9_11
REMARK    4  A    between atoms: C7_8  and  O2_9
REMARK    5  A    between atoms: O2_9  and  C8_10
REMARK    6  A    between atoms: N1_13  and  C10_14
REMARK    7  A    between atoms: C10_14  and  C11_15
REMARK    8  A    between atoms: C10_14  and  C20_29
REMARK    9  A    between atoms: N2_17  and  C12_18
REMARK   10  A    between atoms: N4_26  and  C19_27
REMARK                            x       y       z     vdW  Elec       q    Type
REMARK                         _______ _______ _______ _____ _____    ______ ____
ROOT
ATOM      1  C10 UNL     1     -30.525  -9.634   1.502  0.00  0.00    +0.000 C 
ENDROOT
BRANCH   1   2
ATOM      2  C20 UNL     1     -29.686 -10.519   2.413  0.00  0.00    +0.000 A 
ATOM      3  C21 UNL     1     -30.276 -11.332   3.396  0.00  0.00    +0.000 A 
ATOM      4  C22 UNL     1     -29.487 -12.097   4.256  0.00  0.00    +0.000 A 
ATOM      5  C23 UNL     1     -28.099 -12.053   4.155  0.00  0.00    +0.000 A 
ATOM      6  C24 UNL     1     -27.498 -11.244   3.194  0.00  0.00    +0.000 A 
ATOM      7  C25 UNL     1     -28.285 -10.478   2.331  0.00  0.00    +0.000 A 
ENDBRANCH   1   2
BRANCH   1  10
ATOM      8  C9  UNL     1     -29.756  -9.980  -0.840  0.00  0.00    +0.000 C 
ATOM      9  O3  UNL     1     -30.570 -10.876  -1.037  0.00  0.00    +0.000 OA
ATOM     10  N1  UNL     1     -29.715  -9.268   0.334  0.00  0.00    +0.000 N 
ATOM     11  H10 UNL     1     -28.921  -8.668   0.518  0.00  0.00    +0.000 HD
BRANCH   8  15
ATOM     12  C2  UNL     1     -26.944  -8.943  -3.910  0.00  0.00    +0.000 A 
ATOM     13  C3  UNL     1     -28.242  -9.355  -4.232  0.00  0.00    +0.000 A 
ATOM     14  C4  UNL     1     -29.146  -9.685  -3.220  0.00  0.00    +0.000 A 
ATOM     15  C5  UNL     1     -28.758  -9.618  -1.880  0.00  0.00    +0.000 A 
ATOM     16  C6  UNL     1     -27.467  -9.188  -1.546  0.00  0.00    +0.000 A 
ATOM     17  C7  UNL     1     -26.556  -8.853  -2.556  0.00  0.00    +0.000 A 
BRANCH  12  19
ATOM     18  C1  UNL     1     -26.049  -9.226  -6.109  0.00  0.00    +0.000 C 
ATOM     19  O1  UNL     1     -25.988  -8.602  -4.834  0.00  0.00    +0.000 OA
ENDBRANCH  12  19
BRANCH  17  20
ATOM     20  O2  UNL     1     -25.271  -8.427  -2.328  0.00  0.00    +0.000 OA
ATOM     21  C8  UNL     1     -24.445  -9.217  -1.484  0.00  0.00    +0.000 C 
ENDBRANCH  17  20
ENDBRANCH   8  15
ENDBRANCH   1  10
BRANCH   1  22
ATOM     22  C11 UNL     1     -31.146  -8.381   2.205  0.00  0.00    +0.000 C 
ATOM     23  O4  UNL     1     -32.249  -7.930   1.905  0.00  0.00    +0.000 OA
ATOM     24  N2  UNL     1     -30.283  -7.815   3.135  0.00  0.00    +0.000 N 
ATOM     25  H12 UNL     1     -29.376  -8.276   3.232  0.00  0.00    +0.000 HD
BRANCH  24  26
ATOM     26  C12 UNL     1     -30.497  -6.693   3.962  0.00  0.00    +0.000 A 
ATOM     27  C13 UNL     1     -30.544  -6.934   5.343  0.00  0.00    +0.000 A 
ATOM     28  C14 UNL     1     -30.757  -5.907   6.272  0.00  0.00    +0.000 A 
ATOM     29  C15 UNL     1     -30.925  -4.618   5.760  0.00  0.00    +0.000 A 
ATOM     30  C16 UNL     1     -30.886  -4.345   4.396  0.00  0.00    +0.000 A 
ATOM     31  C17 UNL     1     -30.668  -5.391   3.480  0.00  0.00    +0.000 A 
ATOM     32  N3  UNL     1     -31.085  -3.007   4.157  0.00  0.00    +0.000 NA
ATOM     33  C18 UNL     1     -31.253  -2.460   5.333  0.00  0.00    +0.000 A 
ATOM     34  N4  UNL     1     -31.144  -3.389   6.340  0.00  0.00    +0.000 N 
ATOM     35  C19 UNL     1     -31.218  -3.115   7.752  0.00  0.00    +0.000 C 
ATOM     36  N5  UNL     1     -31.503  -1.159   5.564  0.00  0.00    +0.000 N 
ATOM     37  H19 UNL     1     -31.712  -0.641   4.713  0.00  0.00    +0.000 HD
ATOM     38  H20 UNL     1     -32.146  -0.913   6.308  0.00  0.00    +0.000 HD
ENDBRANCH  24  26
ENDBRANCH   1  22
TORSDOF 7
ENDMDL
MODEL 5
REMARK VINA RESULT:    -6.519      3.498      9.519
REMARK INTER + INTRA:         -10.377
REMARK INTER:                  -9.113
REMARK INTRA:                  -1.264
REMARK UNBOUND:                -1.191
REMARK  Name = gant61.pdb
REMARK  10 active torsions:
REMARK  status: ('A' for Active; 'I' for Inactive)
REMARK    1  A    between atoms: C1_1  and  O1_2
REMARK    2  A    between atoms: O1_2  and  C2_3
REMARK    3  A    between atoms: C5_6  and  C9_11
REMARK    4  A    between atoms: C7_8  and  O2_9
REMARK    5  A    between atoms: O2_9  and  C8_10
REMARK    6  A    between atoms: N1_13  and  C10_14
REMARK    7  A    between atoms: C10_14  and  C11_15
REMARK    8  A    between atoms: C10_14  and  C20_29
REMARK    9  A    between atoms: N2_17  and  C12_18
REMARK   10  A    between atoms: N4_26  and  C19_27
REMARK                            x       y       z     vdW  Elec       q    Type
REMARK                         _______ _______ _______ _____ _____    ______ ____
ROOT
ATOM      1  C10 UNL     1     -30.321 -11.343  -2.476  0.00  0.00    +0.000 C 
ENDROOT
BRANCH   1   2
ATOM      2  C20 UNL     1     -29.835 -11.122  -3.902  0.00  0.00    +0.000 A 
ATOM      3  C21 UNL     1     -30.673 -10.576  -4.889  0.00  0.00    +0.000 A 
ATOM      4  C22 UNL     1     -30.224 -10.430  -6.203  0.00  0.00    +0.000 A 
ATOM      5  C23 UNL     1     -28.939 -10.838  -6.552  0.00  0.00    +0.000 A 
ATOM      6  C24 UNL     1     -28.100 -11.391  -5.587  0.00  0.00    +0.000 A 
ATOM      7  C25 UNL     1     -28.545 -11.537  -4.272  0.00  0.00    +0.000 A 
ENDBRANCH   1   2
BRANCH   1  10
ATOM      8  C9  UNL     1     -32.130 -13.051  -2.537  0.00  0.00    +0.000 C 
ATOM      9  O3  UNL     1     -31.342 -13.977  -2.372  0.00  0.00    +0.000 OA
ATOM     10  N1  UNL     1     -31.734 -11.736  -2.521  0.00  0.00    +0.000 N 
ATOM     11  H10 UNL     1     -32.381 -11.024  -2.836  0.00  0.00    +0.000 HD
BRANCH   8  15
ATOM     12  C2  UNL     1     -36.305 -13.731  -3.255  0.00  0.00    +0.000 A 
ATOM     13  C3  UNL     1     -35.670 -12.580  -3.736  0.00  0.00    +0.000 A 
ATOM     14  C4  UNL     1     -34.309 -12.377  -3.497  0.00  0.00    +0.000 A 
ATOM     15  C5  UNL     1     -33.575 -13.314  -2.766  0.00  0.00    +0.000 A 
ATOM     16  C6  UNL     1     -34.197 -14.479  -2.297  0.00  0.00    +0.000 A 
ATOM     17  C7  UNL     1     -35.561 -14.690  -2.536  0.00  0.00    +0.000 A 
BRANCH  12  19
ATOM     18  C1  UNL     1     -38.199 -13.746  -4.714  0.00  0.00    +0.000 C 
ATOM     19  O1  UNL     1     -37.635 -14.015  -3.438  0.00  0.00    +0.000 OA
ENDBRANCH  12  19
BRANCH  17  20
ATOM     20  O2  UNL     1     -36.257 -15.795  -2.113  0.00  0.00    +0.000 OA
ATOM     21  C8  UNL     1     -36.135 -16.181  -0.752  0.00  0.00    +0.000 C 
ENDBRANCH  17  20
ENDBRANCH   8  15
ENDBRANCH   1  10
BRANCH   1  22
ATOM     22  C11 UNL     1     -30.075 -10.135  -1.512  0.00  0.00    +0.000 C 
ATOM     23  O4  UNL     1     -29.189  -9.304  -1.699  0.00  0.00    +0.000 OA
ATOM     24  N2  UNL     1     -30.916 -10.162  -0.406  0.00  0.00    +0.000 N 
ATOM     25  H12 UNL     1     -31.566 -10.950  -0.365  0.00  0.00    +0.000 HD
BRANCH  24  26
ATOM     26  C12 UNL     1     -30.992  -9.244   0.662  0.00  0.00    +0.000 A 
ATOM     27  C13 UNL     1     -32.013  -8.285   0.591  0.00  0.00    +0.000 A 
ATOM     28  C14 UNL     1     -32.192  -7.312   1.583  0.00  0.00    +0.000 A 
ATOM     29  C15 UNL     1     -31.301  -7.336   2.658  0.00  0.00    +0.000 A 
ATOM     30  C16 UNL     1     -30.275  -8.272   2.759  0.00  0.00    +0.000 A 
ATOM     31  C17 UNL     1     -30.115  -9.242   1.752  0.00  0.00    +0.000 A 
ATOM     32  N3  UNL     1     -29.539  -8.074   3.902  0.00  0.00    +0.000 NA
ATOM     33  C18 UNL     1     -30.080  -7.042   4.494  0.00  0.00    +0.000 A 
ATOM     34  N4  UNL     1     -31.164  -6.570   3.793  0.00  0.00    +0.000 N 
ATOM     35  C19 UNL     1     -32.020  -5.482   4.195  0.00  0.00    +0.000 C 
ATOM     36  N5  UNL     1     -29.654  -6.486   5.643  0.00  0.00    +0.000 N 
ATOM     37  H19 UNL     1     -28.753  -6.849   5.945  0.00  0.00    +0.000 HD
ATOM     38  H20 UNL     1     -29.692  -5.477   5.737  0.00  0.00    +0.000 HD
ENDBRANCH  24  26
ENDBRANCH   1  22
TORSDOF 7
ENDMDL
MODEL 6
REMARK VINA RESULT:    -6.511      1.283      2.004
REMARK INTER + INTRA:         -10.366
REMARK INTER:                  -9.216
REMARK INTRA:                  -1.149
REMARK UNBOUND:                -1.191
REMARK  Name = gant61.pdb
REMARK  10 active torsions:
REMARK  status: ('A' for Active; 'I' for Inactive)
REMARK    1  A    between atoms: C1_1  and  O1_2
REMARK    2  A    between atoms: O1_2  and  C2_3
REMARK    3  A    between atoms: C5_6  and  C9_11
REMARK    4  A    between atoms: C7_8  and  O2_9
REMARK    5  A    between atoms: O2_9  and  C8_10
REMARK    6  A    between atoms: N1_13  and  C10_14
REMARK    7  A    between atoms: C10_14  and  C11_15
REMARK    8  A    between atoms: C10_14  and  C20_29
REMARK    9  A    between atoms: N2_17  and  C12_18
REMARK   10  A    between atoms: N4_26  and  C19_27
REMARK                            x       y       z     vdW  Elec       q    Type
REMARK                         _______ _______ _______ _____ _____    ______ ____
ROOT
ATOM      1  C10 UNL     1     -30.892 -11.744  -3.252  0.00  0.00    +0.000 C 
ENDROOT
BRANCH   1   2
ATOM      2  C20 UNL     1     -32.087 -12.657  -3.493  0.00  0.00    +0.000 A 
ATOM      3  C21 UNL     1     -31.924 -13.999  -3.876  0.00  0.00    +0.000 A 
ATOM      4  C22 UNL     1     -33.032 -14.805  -4.142  0.00  0.00    +0.000 A 
ATOM      5  C23 UNL     1     -34.318 -14.278  -4.042  0.00  0.00    +0.000 A 
ATOM      6  C24 UNL     1     -34.497 -12.947  -3.674  0.00  0.00    +0.000 A 
ATOM      7  C25 UNL     1     -33.390 -12.139  -3.406  0.00  0.00    +0.000 A 
ENDBRANCH   1   2
BRANCH   1  10
ATOM      8  C9  UNL     1     -30.391 -10.355  -1.248  0.00  0.00    +0.000 C 
ATOM      9  O3  UNL     1     -29.212 -10.693  -1.236  0.00  0.00    +0.000 OA
ATOM     10  N1  UNL     1     -31.261 -10.753  -2.235  0.00  0.00    +0.000 N 
ATOM     11  H10 UNL     1     -32.253 -10.598  -2.108  0.00  0.00    +0.000 HD
BRANCH   8  15
ATOM     12  C2  UNL     1     -32.048  -7.804   1.777  0.00  0.00    +0.000 A 
ATOM     13  C3  UNL     1     -32.428  -7.672   0.437  0.00  0.00    +0.000 A 
ATOM     14  C4  UNL     1     -31.882  -8.514  -0.535  0.00  0.00    +0.000 A 
ATOM     15  C5  UNL     1     -30.944  -9.486  -0.178  0.00  0.00    +0.000 A 
ATOM     16  C6  UNL     1     -30.572  -9.639   1.164  0.00  0.00    +0.000 A 
ATOM     17  C7  UNL     1     -31.118  -8.800   2.144  0.00  0.00    +0.000 A 
BRANCH  12  19
ATOM     18  C1  UNL     1     -33.915  -7.102   3.096  0.00  0.00    +0.000 C 
ATOM     19  O1  UNL     1     -32.528  -7.023   2.799  0.00  0.00    +0.000 OA
ENDBRANCH  12  19
BRANCH  17  20
ATOM     20  O2  UNL     1     -30.812  -8.871   3.480  0.00  0.00    +0.000 OA
ATOM     21  C8  UNL     1     -29.471  -8.614   3.873  0.00  0.00    +0.000 C 
ENDBRANCH  17  20
ENDBRANCH   8  15
ENDBRANCH   1  10
BRANCH   1  22
ATOM     22  C11 UNL     1     -30.314 -11.077  -4.544  0.00  0.00    +0.000 C 
ATOM     23  O4  UNL     1     -30.781 -10.048  -5.027  0.00  0.00    +0.000 OA
ATOM     24  N2  UNL     1     -29.278 -11.817  -5.103  0.00  0.00    +0.000 N 
ATOM     25  H12 UNL     1     -29.040 -12.682  -4.612  0.00  0.00    +0.000 HD
BRANCH  24  26
ATOM     26  C12 UNL     1     -28.515 -11.530  -6.252  0.00  0.00    +0.000 A 
ATOM     27  C13 UNL     1     -28.820 -12.268  -7.405  0.00  0.00    +0.000 A 
ATOM     28  C14 UNL     1     -28.131 -12.085  -8.612  0.00  0.00    +0.000 A 
ATOM     29  C15 UNL     1     -27.116 -11.126  -8.619  0.00  0.00    +0.000 A 
ATOM     30  C16 UNL     1     -26.787 -10.377  -7.492  0.00  0.00    +0.000 A 
ATOM     31  C17 UNL     1     -27.492 -10.576  -6.292  0.00  0.00    +0.000 A 
ATOM     32  N3  UNL     1     -25.752  -9.514  -7.761  0.00  0.00    +0.000 NA
ATOM     33  C18 UNL     1     -25.437  -9.720  -9.013  0.00  0.00    +0.000 A 
ATOM     34  N4  UNL     1     -26.247 -10.672  -9.585  0.00  0.00    +0.000 N 
ATOM     35  C19 UNL     1     -26.207 -11.096 -10.962  0.00  0.00    +0.000 C 
ATOM     36  N5  UNL     1     -24.451  -9.100  -9.685  0.00  0.00    +0.000 N 
ATOM     37  H19 UNL     1     -23.848  -8.548  -9.079  0.00  0.00    +0.000 HD
ATOM     38  H20 UNL     1     -23.907  -9.635 -10.353  0.00  0.00    +0.000 HD
ENDBRANCH  24  26
ENDBRANCH   1  22
TORSDOF 7
ENDMDL
MODEL 7
REMARK VINA RESULT:    -6.489      6.941     12.892
REMARK INTER + INTRA:         -10.336
REMARK INTER:                  -9.099
REMARK INTRA:                  -1.236
REMARK UNBOUND:                -1.191
REMARK  Name = gant61.pdb
REMARK  10 active torsions:
REMARK  status: ('A' for Active; 'I' for Inactive)
REMARK    1  A    between atoms: C1_1  and  O1_2
REMARK    2  A    between atoms: O1_2  and  C2_3
REMARK    3  A    between atoms: C5_6  and  C9_11
REMARK    4  A    between atoms: C7_8  and  O2_9
REMARK    5  A    between atoms: O2_9  and  C8_10
REMARK    6  A    between atoms: N1_13  and  C10_14
REMARK    7  A    between atoms: C10_14  and  C11_15
REMARK    8  A    between atoms: C10_14  and  C20_29
REMARK    9  A    between atoms: N2_17  and  C12_18
REMARK   10  A    between atoms: N4_26  and  C19_27
REMARK                            x       y       z     vdW  Elec       q    Type
REMARK                         _______ _______ _______ _____ _____    ______ ____
ROOT
ATOM      1  C10 UNL     1     -33.219  -5.405   5.421  0.00  0.00    +0.000 C 
ENDROOT
BRANCH   1   2
ATOM      2  C20 UNL     1     -32.194  -4.336   5.777  0.00  0.00    +0.000 A 
ATOM      3  C21 UNL     1     -31.243  -3.888   4.844  0.00  0.00    +0.000 A 
ATOM      4  C22 UNL     1     -30.280  -2.945   5.205  0.00  0.00    +0.000 A 
ATOM      5  C23 UNL     1     -30.244  -2.446   6.506  0.00  0.00    +0.000 A 
ATOM      6  C24 UNL     1     -31.172  -2.889   7.445  0.00  0.00    +0.000 A 
ATOM      7  C25 UNL     1     -32.138  -3.831   7.086  0.00  0.00    +0.000 A 
ENDBRANCH   1   2
BRANCH   1  10
ATOM      8  C9  UNL     1     -32.949  -7.367   3.913  0.00  0.00    +0.000 C 
ATOM      9  O3  UNL     1     -33.519  -8.120   4.696  0.00  0.00    +0.000 OA
ATOM     10  N1  UNL     1     -32.828  -6.018   4.146  0.00  0.00    +0.000 N 
ATOM     11  H10 UNL     1     -32.201  -5.474   3.567  0.00  0.00    +0.000 HD
BRANCH   8  15
ATOM     12  C2  UNL     1     -31.279  -8.803   0.232  0.00  0.00    +0.000 A 
ATOM     13  C3  UNL     1     -32.297  -7.842   0.234  0.00  0.00    +0.000 A 
ATOM     14  C4  UNL     1     -32.826  -7.383   1.442  0.00  0.00    +0.000 A 
ATOM     15  C5  UNL     1     -32.352  -7.887   2.656  0.00  0.00    +0.000 A 
ATOM     16  C6  UNL     1     -31.319  -8.834   2.664  0.00  0.00    +0.000 A 
ATOM     17  C7  UNL     1     -30.782  -9.296   1.456  0.00  0.00    +0.000 A 
BRANCH  12  19
ATOM     18  C1  UNL     1     -31.545  -9.971  -1.838  0.00  0.00    +0.000 C 
ATOM     19  O1  UNL     1     -30.700  -9.314  -0.903  0.00  0.00    +0.000 OA
ENDBRANCH  12  19
BRANCH  17  20
ATOM     20  O2  UNL     1     -29.774 -10.224   1.364  0.00  0.00    +0.000 OA
ATOM     21  C8  UNL     1     -28.655 -10.084   2.228  0.00  0.00    +0.000 C 
ENDBRANCH  17  20
ENDBRANCH   8  15
ENDBRANCH   1  10
BRANCH   1  22
ATOM     22  C11 UNL     1     -34.701  -4.903   5.404  0.00  0.00    +0.000 C 
ATOM     23  O4  UNL     1     -35.429  -4.950   6.393  0.00  0.00    +0.000 OA
ATOM     24  N2  UNL     1     -35.101  -4.478   4.143  0.00  0.00    +0.000 N 
ATOM     25  H12 UNL     1     -34.394  -4.552   3.408  0.00  0.00    +0.000 HD
BRANCH  24  26
ATOM     26  C12 UNL     1     -36.350  -3.958   3.748  0.00  0.00    +0.000 A 
ATOM     27  C13 UNL     1     -36.466  -2.560   3.726  0.00  0.00    +0.000 A 
ATOM     28  C14 UNL     1     -37.655  -1.916   3.359  0.00  0.00    +0.000 A 
ATOM     29  C15 UNL     1     -38.734  -2.733   3.013  0.00  0.00    +0.000 A 
ATOM     30  C16 UNL     1     -38.653  -4.123   3.025  0.00  0.00    +0.000 A 
ATOM     31  C17 UNL     1     -37.449  -4.749   3.395  0.00  0.00    +0.000 A 
ATOM     32  N3  UNL     1     -39.849  -4.688   2.654  0.00  0.00    +0.000 NA
ATOM     33  C18 UNL     1     -40.656  -3.685   2.423  0.00  0.00    +0.000 A 
ATOM     34  N4  UNL     1     -40.024  -2.479   2.606  0.00  0.00    +0.000 N 
ATOM     35  C19 UNL     1     -40.605  -1.179   2.381  0.00  0.00    +0.000 C 
ATOM     36  N5  UNL     1     -41.946  -3.786   2.055  0.00  0.00    +0.000 N 
ATOM     37  H19 UNL     1     -42.301  -4.737   2.122  0.00  0.00    +0.000 HD
ATOM     38  H20 UNL     1     -42.612  -3.120   2.432  0.00  0.00    +0.000 HD
ENDBRANCH  24  26
ENDBRANCH   1  22
TORSDOF 7
ENDMDL
MODEL 8
REMARK VINA RESULT:    -6.448      4.916     11.232
REMARK INTER + INTRA:         -10.278
REMARK INTER:                  -9.028
REMARK INTRA:                  -1.250
REMARK UNBOUND:                -1.191
REMARK  Name = gant61.pdb
REMARK  10 active torsions:
REMARK  status: ('A' for Active; 'I' for Inactive)
REMARK    1  A    between atoms: C1_1  and  O1_2
REMARK    2  A    between atoms: O1_2  and  C2_3
REMARK    3  A    between atoms: C5_6  and  C9_11
REMARK    4  A    between atoms: C7_8  and  O2_9
REMARK    5  A    between atoms: O2_9  and  C8_10
REMARK    6  A    between atoms: N1_13  and  C10_14
REMARK    7  A    between atoms: C10_14  and  C11_15
REMARK    8  A    between atoms: C10_14  and  C20_29
REMARK    9  A    between atoms: N2_17  and  C12_18
REMARK   10  A    between atoms: N4_26  and  C19_27
REMARK                            x       y       z     vdW  Elec       q    Type
REMARK                         _______ _______ _______ _____ _____    ______ ____
ROOT
ATOM      1  C10 UNL     1     -28.939 -10.851   1.965  0.00  0.00    +0.000 C 
ENDROOT
BRANCH   1   2
ATOM      2  C20 UNL     1     -27.740 -11.369   2.747  0.00  0.00    +0.000 A 
ATOM      3  C21 UNL     1     -27.739 -11.412   4.151  0.00  0.00    +0.000 A 
ATOM      4  C22 UNL     1     -26.611 -11.843   4.851  0.00  0.00    +0.000 A 
ATOM      5  C23 UNL     1     -25.463 -12.224   4.159  0.00  0.00    +0.000 A 
ATOM      6  C24 UNL     1     -25.443 -12.177   2.767  0.00  0.00    +0.000 A 
ATOM      7  C25 UNL     1     -26.571 -11.748   2.065  0.00  0.00    +0.000 A 
ENDBRANCH   1   2
BRANCH   1  10
ATOM      8  C9  UNL     1     -29.139 -10.339  -0.463  0.00  0.00    +0.000 C 
ATOM      9  O3  UNL     1     -30.260 -10.829  -0.534  0.00  0.00    +0.000 OA
ATOM     10  N1  UNL     1     -28.455 -10.234   0.725  0.00  0.00    +0.000 N 
ATOM     11  H10 UNL     1     -27.473  -9.990   0.706  0.00  0.00    +0.000 HD
BRANCH   8  15
ATOM     12  C2  UNL     1     -27.079  -8.854  -3.921  0.00  0.00    +0.000 A 
ATOM     13  C3  UNL     1     -26.434  -8.943  -2.682  0.00  0.00    +0.000 A 
ATOM     14  C4  UNL     1     -27.118  -9.432  -1.567  0.00  0.00    +0.000 A 
ATOM     15  C5  UNL     1     -28.454  -9.826  -1.678  0.00  0.00    +0.000 A 
ATOM     16  C6  UNL     1     -29.102  -9.760  -2.919  0.00  0.00    +0.000 A 
ATOM     17  C7  UNL     1     -28.421  -9.273  -4.041  0.00  0.00    +0.000 A 
BRANCH  12  19
ATOM     18  C1  UNL     1     -25.141  -8.753  -5.318  0.00  0.00    +0.000 C 
ATOM     19  O1  UNL     1     -26.490  -8.385  -5.069  0.00  0.00    +0.000 OA
ENDBRANCH  12  19
BRANCH  17  20
ATOM     20  O2  UNL     1     -28.972  -9.166  -5.294  0.00  0.00    +0.000 OA
ATOM     21  C8  UNL     1     -29.619 -10.308  -5.838  0.00  0.00    +0.000 C 
ENDBRANCH  17  20
ENDBRANCH   8  15
ENDBRANCH   1  10
BRANCH   1  22
ATOM     22  C11 UNL     1     -29.877  -9.894   2.773  0.00  0.00    +0.000 C 
ATOM     23  O4  UNL     1     -30.976 -10.243   3.199  0.00  0.00    +0.000 OA
ATOM     24  N2  UNL     1     -29.355  -8.610   2.882  0.00  0.00    +0.000 N 
ATOM     25  H12 UNL     1     -28.452  -8.461   2.426  0.00  0.00    +0.000 HD
BRANCH  24  26
ATOM     26  C12 UNL     1     -29.906  -7.492   3.539  0.00  0.00    +0.000 A 
ATOM     27  C13 UNL     1     -30.300  -6.420   2.724  0.00  0.00    +0.000 A 
ATOM     28  C14 UNL     1     -30.855  -5.246   3.252  0.00  0.00    +0.000 A 
ATOM     29  C15 UNL     1     -31.000  -5.187   4.640  0.00  0.00    +0.000 A 
ATOM     30  C16 UNL     1     -30.618  -6.231   5.478  0.00  0.00    +0.000 A 
ATOM     31  C17 UNL     1     -30.065  -7.401   4.926  0.00  0.00    +0.000 A 
ATOM     32  N3  UNL     1     -30.858  -5.919   6.794  0.00  0.00    +0.000 NA
ATOM     33  C18 UNL     1     -31.366  -4.715   6.783  0.00  0.00    +0.000 A 
ATOM     34  N4  UNL     1     -31.494  -4.234   5.502  0.00  0.00    +0.000 N 
ATOM     35  C19 UNL     1     -32.069  -2.966   5.130  0.00  0.00    +0.000 C 
ATOM     36  N5  UNL     1     -31.728  -4.007   7.868  0.00  0.00    +0.000 N 
ATOM     37  H19 UNL     1     -31.421  -4.436   8.739  0.00  0.00    +0.000 HD
ATOM     38  H20 UNL     1     -31.558  -3.007   7.875  0.00  0.00    +0.000 HD
ENDBRANCH  24  26
ENDBRANCH   1  22
TORSDOF 7
ENDMDL
MODEL 9
REMARK VINA RESULT:    -6.364      3.087     10.353
REMARK INTER + INTRA:         -10.159
REMARK INTER:                  -9.159
REMARK INTRA:                  -1.000
REMARK UNBOUND:                -1.191
REMARK  Name = gant61.pdb
REMARK  10 active torsions:
REMARK  status: ('A' for Active; 'I' for Inactive)
REMARK    1  A    between atoms: C1_1  and  O1_2
REMARK    2  A    between atoms: O1_2  and  C2_3
REMARK    3  A    between atoms: C5_6  and  C9_11
REMARK    4  A    between atoms: C7_8  and  O2_9
REMARK    5  A    between atoms: O2_9  and  C8_10
REMARK    6  A    between atoms: N1_13  and  C10_14
REMARK    7  A    between atoms: C10_14  and  C11_15
REMARK    8  A    between atoms: C10_14  and  C20_29
REMARK    9  A    between atoms: N2_17  and  C12_18
REMARK   10  A    between atoms: N4_26  and  C19_27
REMARK                            x       y       z     vdW  Elec       q    Type
REMARK                         _______ _______ _______ _____ _____    ______ ____
ROOT
ATOM      1  C10 UNL     1     -30.755 -10.721  -1.949  0.00  0.00    +0.000 C 
ENDROOT
BRANCH   1   2
ATOM      2  C20 UNL     1     -30.842 -12.187  -1.548  0.00  0.00    +0.000 A 
ATOM      3  C21 UNL     1     -31.922 -12.995  -1.943  0.00  0.00    +0.000 A 
ATOM      4  C22 UNL     1     -32.010 -14.323  -1.523  0.00  0.00    +0.000 A 
ATOM      5  C23 UNL     1     -31.028 -14.859  -0.693  0.00  0.00    +0.000 A 
ATOM      6  C24 UNL     1     -29.957 -14.069  -0.284  0.00  0.00    +0.000 A 
ATOM      7  C25 UNL     1     -29.866 -12.740  -0.703  0.00  0.00    +0.000 A 
ENDBRANCH   1   2
BRANCH   1  10
ATOM      8  C9  UNL     1     -30.354 -10.482  -4.394  0.00  0.00    +0.000 C 
ATOM      9  O3  UNL     1     -31.545 -10.313  -4.632  0.00  0.00    +0.000 OA
ATOM     10  N1  UNL     1     -29.870 -10.608  -3.114  0.00  0.00    +0.000 N 
ATOM     11  H10 UNL     1     -28.917 -10.921  -2.977  0.00  0.00    +0.000 HD
BRANCH   8  15
ATOM     12  C2  UNL     1     -27.418 -10.677  -7.515  0.00  0.00    +0.000 A 
ATOM     13  C3  UNL     1     -27.085 -10.202  -6.242  0.00  0.00    +0.000 A 
ATOM     14  C4  UNL     1     -28.051 -10.149  -5.236  0.00  0.00    +0.000 A 
ATOM     15  C5  UNL     1     -29.361 -10.559  -5.497  0.00  0.00    +0.000 A 
ATOM     16  C6  UNL     1     -29.701 -11.055  -6.762  0.00  0.00    +0.000 A 
ATOM     17  C7  UNL     1     -28.735 -11.113  -7.775  0.00  0.00    +0.000 A 
BRANCH  12  19
ATOM     18  C1  UNL     1     -25.732  -9.628  -8.848  0.00  0.00    +0.000 C 
ATOM     19  O1  UNL     1     -26.538 -10.763  -8.565  0.00  0.00    +0.000 OA
ENDBRANCH  12  19
BRANCH  17  20
ATOM     20  O2  UNL     1     -28.973 -11.577  -9.045  0.00  0.00    +0.000 OA
ATOM     21  C8  UNL     1     -30.322 -11.795  -9.434  0.00  0.00    +0.000 C 
ENDBRANCH  17  20
ENDBRANCH   8  15
ENDBRANCH   1  10
BRANCH   1  22
ATOM     22  C11 UNL     1     -30.333  -9.756  -0.791  0.00  0.00    +0.000 C 
ATOM     23  O4  UNL     1     -29.174  -9.381  -0.627  0.00  0.00    +0.000 OA
ATOM     24  N2  UNL     1     -31.394  -9.443   0.049  0.00  0.00    +0.000 N 
ATOM     25  H12 UNL     1     -32.288  -9.877  -0.189  0.00  0.00    +0.000 HD
BRANCH  24  26
ATOM     26  C12 UNL     1     -31.398  -8.604   1.182  0.00  0.00    +0.000 A 
ATOM     27  C13 UNL     1     -32.375  -7.598   1.212  0.00  0.00    +0.000 A 
ATOM     28  C14 UNL     1     -32.483  -6.693   2.277  0.00  0.00    +0.000 A 
ATOM     29  C15 UNL     1     -31.565  -6.836   3.320  0.00  0.00    +0.000 A 
ATOM     30  C16 UNL     1     -30.582  -7.822   3.322  0.00  0.00    +0.000 A 
ATOM     31  C17 UNL     1     -30.493  -8.721   2.243  0.00  0.00    +0.000 A 
ATOM     32  N3  UNL     1     -29.807  -7.741   4.453  0.00  0.00    +0.000 NA
ATOM     33  C18 UNL     1     -30.283  -6.733   5.135  0.00  0.00    +0.000 A 
ATOM     34  N4  UNL     1     -31.362  -6.163   4.503  0.00  0.00    +0.000 N 
ATOM     35  C19 UNL     1     -32.155  -5.071   5.008  0.00  0.00    +0.000 C 
ATOM     36  N5  UNL     1     -29.802  -6.282   6.308  0.00  0.00    +0.000 N 
ATOM     37  H19 UNL     1     -28.910  -6.707   6.556  0.00  0.00    +0.000 HD
ATOM     38  H20 UNL     1     -29.790  -5.283   6.476  0.00  0.00    +0.000 HD
ENDBRANCH  24  26
ENDBRANCH   1  22
TORSDOF 7
ENDMDL
MODEL 10
REMARK VINA RESULT:    -6.312      4.540     10.324
REMARK INTER + INTRA:         -10.086
REMARK INTER:                  -8.904
REMARK INTRA:                  -1.182
REMARK UNBOUND:                -1.191
REMARK  Name = gant61.pdb
REMARK  10 active torsions:
REMARK  status: ('A' for Active; 'I' for Inactive)
REMARK    1  A    between atoms: C1_1  and  O1_2
REMARK    2  A    between atoms: O1_2  and  C2_3
REMARK    3  A    between atoms: C5_6  and  C9_11
REMARK    4  A    between atoms: C7_8  and  O2_9
REMARK    5  A    between atoms: O2_9  and  C8_10
REMARK    6  A    between atoms: N1_13  and  C10_14
REMARK    7  A    between atoms: C10_14  and  C11_15
REMARK    8  A    between atoms: C10_14  and  C20_29
REMARK    9  A    between atoms: N2_17  and  C12_18
REMARK   10  A    between atoms: N4_26  and  C19_27
REMARK                            x       y       z     vdW  Elec       q    Type
REMARK                         _______ _______ _______ _____ _____    ______ ____
ROOT
ATOM      1  C10 UNL     1     -30.648  -9.280  -1.334  0.00  0.00    +0.000 C 
ENDROOT
BRANCH   1   2
ATOM      2  C20 UNL     1     -31.214 -10.611  -1.809  0.00  0.00    +0.000 A 
ATOM      3  C21 UNL     1     -30.865 -11.823  -1.189  0.00  0.00    +0.000 A 
ATOM      4  C22 UNL     1     -31.354 -13.037  -1.671  0.00  0.00    +0.000 A 
ATOM      5  C23 UNL     1     -32.188 -13.061  -2.787  0.00  0.00    +0.000 A 
ATOM      6  C24 UNL     1     -32.534 -11.870  -3.421  0.00  0.00    +0.000 A 
ATOM      7  C25 UNL     1     -32.048 -10.653  -2.939  0.00  0.00    +0.000 A 
ENDBRANCH   1   2
BRANCH   1  10
ATOM      8  C9  UNL     1     -28.397  -9.435  -2.384  0.00  0.00    +0.000 C 
ATOM      9  O3  UNL     1     -28.843  -9.236  -3.509  0.00  0.00    +0.000 OA
ATOM     10  N1  UNL     1     -29.187  -9.394  -1.261  0.00  0.00    +0.000 N 
ATOM     11  H10 UNL     1     -28.814  -9.736  -0.385  0.00  0.00    +0.000 HD
BRANCH   8  15
ATOM     12  C2  UNL     1     -24.261 -10.375  -1.740  0.00  0.00    +0.000 A 
ATOM     13  C3  UNL     1     -25.272 -11.106  -1.107  0.00  0.00    +0.000 A 
ATOM     14  C4  UNL     1     -26.614 -10.789  -1.331  0.00  0.00    +0.000 A 
ATOM     15  C5  UNL     1     -26.955  -9.733  -2.180  0.00  0.00    +0.000 A 
ATOM     16  C6  UNL     1     -25.951  -9.008  -2.834  0.00  0.00    +0.000 A 
ATOM     17  C7  UNL     1     -24.604  -9.323  -2.615  0.00  0.00    +0.000 A 
BRANCH  12  19
ATOM     18  C1  UNL     1     -22.477 -11.962  -1.598  0.00  0.00    +0.000 C 
ATOM     19  O1  UNL     1     -22.918 -10.611  -1.579  0.00  0.00    +0.000 OA
ENDBRANCH  12  19
BRANCH  17  20
ATOM     20  O2  UNL     1     -23.551  -8.667  -3.206  0.00  0.00    +0.000 OA
ATOM     21  C8  UNL     1     -23.371  -8.818  -4.607  0.00  0.00    +0.000 C 
ENDBRANCH  17  20
ENDBRANCH   8  15
ENDBRANCH   1  10
BRANCH   1  22
ATOM     22  C11 UNL     1     -31.266  -8.751   0.003  0.00  0.00    +0.000 C 
ATOM     23  O4  UNL     1     -32.394  -8.265   0.067  0.00  0.00    +0.000 OA
ATOM     24  N2  UNL     1     -30.374  -8.830   1.065  0.00  0.00    +0.000 N 
ATOM     25  H12 UNL     1     -29.452  -9.208   0.839  0.00  0.00    +0.000 HD
BRANCH  24  26
ATOM     26  C12 UNL     1     -30.577  -8.460   2.410  0.00  0.00    +0.000 A 
ATOM     27  C13 UNL     1     -31.049  -9.462   3.270  0.00  0.00    +0.000 A 
ATOM     28  C14 UNL     1     -31.299  -9.223   4.628  0.00  0.00    +0.000 A 
ATOM     29  C15 UNL     1     -31.055  -7.929   5.096  0.00  0.00    +0.000 A 
ATOM     30  C16 UNL     1     -30.588  -6.911   4.269  0.00  0.00    +0.000 A 
ATOM     31  C17 UNL     1     -30.343  -7.174   2.909  0.00  0.00    +0.000 A 
ATOM     32  N3  UNL     1     -30.441  -5.738   4.970  0.00  0.00    +0.000 NA
ATOM     33  C18 UNL     1     -30.811  -6.010   6.194  0.00  0.00    +0.000 A 
ATOM     34  N4  UNL     1     -31.173  -7.329   6.329  0.00  0.00    +0.000 N 
ATOM     35  C19 UNL     1     -31.576  -7.972   7.554  0.00  0.00    +0.000 C 
ATOM     36  N5  UNL     1     -30.848  -5.135   7.214  0.00  0.00    +0.000 N 
ATOM     37  H19 UNL     1     -30.706  -4.173   6.913  0.00  0.00    +0.000 HD
ATOM     38  H20 UNL     1     -31.607  -5.199   7.883  0.00  0.00    +0.000 HD
ENDBRANCH  24  26
ENDBRANCH   1  22
TORSDOF 7
ENDMDL
