REMARK  Name = gant61.pdb
REMARK  10 active torsions:
REMARK  status: ('A' for Active; 'I' for Inactive)
REMARK    1  A    between atoms: C1_1  and  O1_2
REMARK    2  A    between atoms: O1_2  and  C2_3
REMARK    3  A    between atoms: C5_6  and  C9_11
REMARK    4  A    between atoms: C7_8  and  O2_9
REMARK    5  A    between atoms: O2_9  and  C8_10
REMARK    6  A    between atoms: N1_13  and  C10_14
REMARK    7  A    between atoms: C10_14  and  C11_15
REMARK    8  A    between atoms: C10_14  and  C20_29
REMARK    9  A    between atoms: N2_17  and  C12_18
REMARK   10  A    between atoms: N4_26  and  C19_27
REMARK                            x       y       z     vdW  Elec       q    Type
REMARK                         _______ _______ _______ _____ _____    ______ ____
ROOT
ATOM      1  C10 UNL     1      -0.145   2.371  -0.376  0.00  0.00    +0.000 C 
ENDROOT
BRANCH   1   2
ATOM      2  C20 UNL     1      -0.560   3.661   0.318  0.00  0.00    +0.000 A 
ATOM      3  C21 UNL     1      -0.644   3.750   1.718  0.00  0.00    +0.000 A 
ATOM      4  C22 UNL     1      -1.076   4.926   2.333  0.00  0.00    +0.000 A 
ATOM      5  C23 UNL     1      -1.442   6.025   1.559  0.00  0.00    +0.000 A 
ATOM      6  C24 UNL     1      -1.375   5.950   0.170  0.00  0.00    +0.000 A 
ATOM      7  C25 UNL     1      -0.942   4.775  -0.448  0.00  0.00    +0.000 A 
ENDBRANCH   1   2
BRANCH   1  10
ATOM      8  C9  UNL     1      -1.461   0.422  -1.192  0.00  0.00    +0.000 C 
ATOM      9  O3  UNL     1      -0.676   0.201  -2.108  0.00  0.00    +0.000 OA
ATOM     10  N1  UNL     1      -1.242   1.404  -0.256  0.00  0.00    +0.000 N 
ATOM     11  H10 UNL     1      -1.995   1.665   0.368  0.00  0.00    +0.000 HD
BRANCH   8  15
ATOM     12  C2  UNL     1      -5.055  -1.899  -0.875  0.00  0.00    +0.000 A 
ATOM     13  C3  UNL     1      -4.461  -1.658  -2.119  0.00  0.00    +0.000 A 
ATOM     14  C4  UNL     1      -3.289  -0.904  -2.204  0.00  0.00    +0.000 A 
ATOM     15  C5  UNL     1      -2.707  -0.375  -1.049  0.00  0.00    +0.000 A 
ATOM     16  C6  UNL     1      -3.283  -0.627   0.203  0.00  0.00    +0.000 A 
ATOM     17  C7  UNL     1      -4.457  -1.385   0.295  0.00  0.00    +0.000 A 
BRANCH  12  19
ATOM     18  C1  UNL     1      -6.823  -3.184  -1.845  0.00  0.00    +0.000 C 
ATOM     19  O1  UNL     1      -6.206  -2.625  -0.694  0.00  0.00    +0.000 OA
ENDBRANCH  12  19
BRANCH  17  20
ATOM     20  O2  UNL     1      -5.096  -1.680   1.474  0.00  0.00    +0.000 OA
ATOM     21  C8  UNL     1      -4.497  -1.244   2.686  0.00  0.00    +0.000 C 
ENDBRANCH  17  20
ENDBRANCH   8  15
ENDBRANCH   1  10
BRANCH   1  22
ATOM     22  C11 UNL     1       1.219   1.780   0.113  0.00  0.00    +0.000 C 
ATOM     23  O4  UNL     1       1.902   2.316   0.983  0.00  0.00    +0.000 OA
ATOM     24  N2  UNL     1       1.586   0.642  -0.595  0.00  0.00    +0.000 N 
ATOM     25  H12 UNL     1       0.936   0.350  -1.328  0.00  0.00    +0.000 HD
BRANCH  24  26
ATOM     26  C12 UNL     1       2.733  -0.161  -0.432  0.00  0.00    +0.000 A 
ATOM     27  C13 UNL     1       2.852  -1.263  -1.292  0.00  0.00    +0.000 A 
ATOM     28  C14 UNL     1       3.940  -2.144  -1.229  0.00  0.00    +0.000 A 
ATOM     29  C15 UNL     1       4.912  -1.877  -0.262  0.00  0.00    +0.000 A 
ATOM     30  C16 UNL     1       4.824  -0.794   0.608  0.00  0.00    +0.000 A 
ATOM     31  C17 UNL     1       3.724   0.079   0.526  0.00  0.00    +0.000 A 
ATOM     32  N3  UNL     1       5.899  -0.762   1.463  0.00  0.00    +0.000 NA
ATOM     33  C18 UNL     1       6.633  -1.796   1.145  0.00  0.00    +0.000 A 
ATOM     34  N4  UNL     1       6.091  -2.493   0.092  0.00  0.00    +0.000 N 
ATOM     35  C19 UNL     1       6.673  -3.648  -0.544  0.00  0.00    +0.000 C 
ATOM     36  N5  UNL     1       7.777  -2.161   1.751  0.00  0.00    +0.000 N 
ATOM     37  H19 UNL     1       7.953  -1.639   2.607  0.00  0.00    +0.000 HD
ATOM     38  H20 UNL     1       7.964  -3.149   1.881  0.00  0.00    +0.000 HD
ENDBRANCH  24  26
ENDBRANCH   1  22
TORSDOF 7
