REMARK  Name = gant61.pdb
REMARK  10 active torsions:
REMARK  status: ('A' for Active; 'I' for Inactive)
REMARK    1  A    between atoms: C1_1  and  O1_2
REMARK    2  A    between atoms: O1_2  and  C2_3
REMARK    3  A    between atoms: C5_6  and  C9_11
REMARK    4  A    between atoms: C7_8  and  O2_9
REMARK    5  A    between atoms: O2_9  and  C8_10
REMARK    6  A    between atoms: N1_13  and  C10_14
REMARK    7  A    between atoms: C10_14  and  C11_15
REMARK    8  A    between atoms: C10_14  and  C20_29
REMARK    9  A    between atoms: N2_17  and  C12_18
REMARK   10  A    between atoms: N4_26  and  C19_27
REMARK                            x       y       z     vdW  Elec       q    Type
REMARK                         _______ _______ _______ _____ _____    ______ ____
ROOT
ATOM      1  C10 UNL     1      -0.313   1.048  -0.043  0.00  0.00    +0.000 C 
ENDROOT
BRANCH   1   2
ATOM      2  C20 UNL     1      -0.224   2.101   1.049  0.00  0.00    +0.000 A 
ATOM      3  C21 UNL     1       0.100   1.766   2.375  0.00  0.00    +0.000 A 
ATOM      4  C22 UNL     1       0.176   2.754   3.357  0.00  0.00    +0.000 A 
ATOM      5  C23 UNL     1      -0.086   4.085   3.033  0.00  0.00    +0.000 A 
ATOM      6  C24 UNL     1      -0.433   4.428   1.728  0.00  0.00    +0.000 A 
ATOM      7  C25 UNL     1      -0.507   3.442   0.743  0.00  0.00    +0.000 A 
ENDBRANCH   1   2
BRANCH   1  10
ATOM      8  C9  UNL     1      -2.677   0.759  -0.698  0.00  0.00    +0.000 C 
ATOM      9  O3  UNL     1      -2.655   1.728  -1.450  0.00  0.00    +0.000 OA
ATOM     10  N1  UNL     1      -1.589   0.353   0.037  0.00  0.00    +0.000 N 
ATOM     11  H10 UNL     1      -1.560  -0.572   0.450  0.00  0.00    +0.000 HD
BRANCH   8  15
ATOM     12  C2  UNL     1      -6.273  -1.580  -0.433  0.00  0.00    +0.000 A 
ATOM     13  C3  UNL     1      -5.354  -1.598   0.622  0.00  0.00    +0.000 A 
ATOM     14  C4  UNL     1      -4.180  -0.842   0.554  0.00  0.00    +0.000 A 
ATOM     15  C5  UNL     1      -3.911  -0.067  -0.578  0.00  0.00    +0.000 A 
ATOM     16  C6  UNL     1      -4.834  -0.033  -1.632  0.00  0.00    +0.000 A 
ATOM     17  C7  UNL     1      -6.013  -0.784  -1.568  0.00  0.00    +0.000 A 
BRANCH  12  19
ATOM     18  C1  UNL     1      -7.794  -3.023   0.715  0.00  0.00    +0.000 C 
ATOM     19  O1  UNL     1      -7.445  -2.293  -0.453  0.00  0.00    +0.000 OA
ENDBRANCH  12  19
BRANCH  17  20
ATOM     20  O2  UNL     1      -6.965  -0.814  -2.557  0.00  0.00    +0.000 OA
ATOM     21  C8  UNL     1      -6.802   0.075  -3.652  0.00  0.00    +0.000 C 
ENDBRANCH  17  20
ENDBRANCH   8  15
ENDBRANCH   1  10
BRANCH   1  22
ATOM     22  C11 UNL     1       0.841   0.012   0.025  0.00  0.00    +0.000 C 
ATOM     23  O4  UNL     1       0.609  -1.180   0.234  0.00  0.00    +0.000 OA
ATOM     24  N2  UNL     1       2.093   0.583  -0.155  0.00  0.00    +0.000 N 
ATOM     25  H12 UNL     1       2.122   1.597  -0.194  0.00  0.00    +0.000 HD
BRANCH  24  26
ATOM     26  C12 UNL     1       3.347  -0.064  -0.161  0.00  0.00    +0.000 A 
ATOM     27  C13 UNL     1       3.505  -1.453  -0.142  0.00  0.00    +0.000 A 
ATOM     28  C14 UNL     1       4.775  -2.053  -0.140  0.00  0.00    +0.000 A 
ATOM     29  C15 UNL     1       5.885  -1.202  -0.163  0.00  0.00    +0.000 A 
ATOM     30  C16 UNL     1       5.759   0.183  -0.193  0.00  0.00    +0.000 A 
ATOM     31  C17 UNL     1       4.480   0.763  -0.197  0.00  0.00    +0.000 A 
ATOM     32  N3  UNL     1       6.987   0.794  -0.210  0.00  0.00    +0.000 NA
ATOM     33  C18 UNL     1       7.860  -0.180  -0.192  0.00  0.00    +0.000 A 
ATOM     34  N4  UNL     1       7.245  -1.409  -0.153  0.00  0.00    +0.000 N 
ATOM     35  C19 UNL     1       7.918  -2.681  -0.069  0.00  0.00    +0.000 C 
ATOM     36  N5  UNL     1       9.196  -0.033  -0.205  0.00  0.00    +0.000 N 
ATOM     37  H19 UNL     1       9.757  -0.695  -0.732  0.00  0.00    +0.000 HD
ATOM     38  H20 UNL     1       9.486   0.923  -0.399  0.00  0.00    +0.000 HD
ENDBRANCH  24  26
ENDBRANCH   1  22
TORSDOF 7
